Infrared Spectrum: Phenol, 2-propyl-
Formula: C 9 H 12 O
CAS: 644-35-9
Origin: Sadtler Research Labs Under US-EPA Contract
1/CM	ABSORBANCE
450	0.0565774
462	0.0453502
474	0.0580281
486	0.0390428
498	0.0292033
510	0.0244096
522	0.0297079
534	0.0373398
546	0.0214452
558	0.0126779
570	0.00756888
582	0.0129932
594	0.0158316
606	0.011921
618	0.00473055
630	0.00435211
642	0.00365829
654	0.00176607
666	0.000693814
678	0.00435211
690	0.00819962
702	0.0209406
714	0.0674892
726	0.118264
738	0.288753
750	0.63074
762	0.241069
774	0.0498915
786	0.0234635
798	0.0311586
810	0.0288879
822	0.0372767
834	0.0667323
846	0.0744273
858	0.0558836
870	0.0454764
882	0.0347538
894	0.0270587
906	0.015327
918	0.0109749
930	0.0193637
942	0.0127409
954	0.00706429
966	0.00454133
978	0.00624433
990	0.00769503
1002	0.0116056
1014	0.0184807
1026	0.0408089
1038	0.0650293
1050	0.062254
1062	0.063957
1074	0.0515315
1086	0.0579019
1098	0.130122
1110	0.283391
1122	0.202972
1134	0.0725982
1146	0.11839
1158	0.22467
1170	0.303449
1182	0.254251
1194	0.347412
1206	0.431931
1218	0.311018
1230	0.167209
1242	0.246556
1254	0.418496
1266	0.218867
1278	0.0688768
1290	0.0668584
1302	0.0884297
1314	0.19452
1326	0.267245
1338	0.125833
1350	0.0423857
1362	0.0172192
1374	0.0252296
1386	0.0483147
1398	0.0309063
1410	0.0179761
1422	0.0259865
1434	0.0527929
1446	0.170048
1458	0.320921
1470	0.238987
1482	0.229968
1494	0.346024
1506	0.263649
1518	0.0908266
1530	0.0288248
1542	0.0186068
1554	0.0185438
1566	0.0371506
1578	0.108424
1590	0.180644
1602	0.137691
1614	0.0831946
1626	0.0359522
1638	0.011921
1650	0.0100918
1662	0.00813655
1674	0.0163992
1686	0.0140655
1698	0.00895651
1710	0.00637047
1722	0.0060551
1734	0.00712736
1746	0.00637047
1758	0.00901958
1770	0.0123625
1782	0.0123625
1794	0.0109118
1806	0.00674892
1818	0.00555051
1830	0.00327985
1842	0.00227066
1854	0.0048567
1866	0.00466748
1878	0.00889343
1890	0.0182284
1902	0.0115425
1914	0.00832577
1926	0.0143178
1938	0.00725351
1950	0.000756888
1962	0.000504592
1974	0.000693814
1986	0.000189222
1998	6.3074e-05
2010	0.000819962
2022	0.00214452
2034	0.00214452
2046	0.00239681
2058	0.00252296
2070	0.00220759
2082	0.00239681
2094	0.00264911
2106	0.00163992
2118	0.00100918
2130	0.00094611
2142	0.00063074
2154	0.000504592
2166	0.000504592
2178	0.00094611
2190	0.00157685
2202	0.00119841
2214	0.00151378
2226	0.000883036
2238	0.000883036
2250	0.00107226
2262	0.001703
2274	0.00239681
2286	0.001703
2298	0.00176607
2310	0.00302755
2322	0.00359522
2334	0.00258603
2346	0.00214452
2358	0.001703
2370	0.001703
2382	0.00195529
2394	0.0029014
2406	0.0048567
2418	0.00725351
2430	0.00674892
2442	0.00618125
2454	0.00637047
2466	0.00573973
2478	0.00548744
2490	0.00662277
2502	0.00725351
2514	0.00592896
2526	0.00454133
2538	0.00479362
2550	0.00416288
2562	0.00441518
2574	0.00409981
2586	0.00327985
2598	0.00334292
2610	0.00498285
2622	0.00637047
2634	0.00788425
2646	0.00725351
2658	0.0060551
2670	0.0065597
2682	0.00700121
2694	0.00529822
2706	0.00447825
2718	0.00567666
2730	0.00756888
2742	0.00952417
2754	0.00889343
2766	0.00725351
2778	0.00832577
2790	0.0124256
2802	0.0160839
2814	0.0192376
2826	0.0240312
2838	0.0378444
2850	0.0759411
2862	0.145827
2874	0.236591
2886	0.295565
2898	0.181022
2910	0.177301
2922	0.259234
2934	0.394023
2946	0.447952
2958	0.404178
2970	0.612638
2982	0.373777
2994	0.0984585
3006	0.0679307
3018	0.102748
3030	0.173895
3042	0.18569
3054	0.129176
3066	0.14116
3078	0.170552
3090	0.108677
3102	0.057965
3114	0.0303386
3126	0.0182284
3138	0.0105334
3150	0.00826269
3162	0.00832577
3174	0.00883036
3186	0.00807347
3198	0.00769503
3210	0.0063074
3222	0.00510899
3234	0.00435211
3246	0.00473055
3258	0.00346907
3270	0.00302755
3282	0.00245989
3294	0.00327985
3306	0.00245989
3318	0.0029014
3330	0.00416288
3342	0.00529822
3354	0.0063074
3366	0.00637047
3378	0.00548744
3390	0.00643355
3402	0.00567666
3414	0.00504592
3426	0.00447825
3438	0.00384751
3450	0.00378444
3462	0.00258603
3474	0.00327985
3486	0.0014507
3498	0.00227066
3510	0.00189222
3522	0.00283833
3534	0.0029014
3546	0.000883036
3558	0.00176607
3570	0.00100918
3582	0.00624433
3594	0.00555051
3606	0.00681199
3618	0.0128671
3630	0.0386013
3642	0.257468
3654	0.432751
3666	0.147215
3678	0.0129932
3690	0.00555051
3702	0.00618125
3714	0
3726	0.00283833
3738	0.000883036
3750	0
3762	0.00397366
3774	0.00491977
3786	0.00491977
3798	0.00555051
3810	0.00618125
3822	0.00592896
3834	0.00536129
3846	0.00788425
3858	0.00643355
3870	0.00618125
3882	0.00599203
3894	0.00870421
3906	0.00744273
3918	0.0118579
3930	0.0109118
3942	0.0114164
3954	0.0094611
3966	0.0112902
