Infrared Spectrum: Ethanamine, 2,2-diethoxy-
Formula: C 6 H 15 N O 2
CAS: 645-36-3
Origin: Sadtler Research Labs Under US-EPA Contract
1/CM	ABSORBANCE
450	0
462	0.0675294
474	0.0623809
486	0.0434631
498	0.063219
510	0.0669307
522	0.0573521
534	0.0729174
546	0.0698043
558	0.0714806
570	0.0701635
582	0.0611836
594	0.0641769
606	0.0563942
618	0.056514
630	0.0584297
642	0.0625006
654	0.0569929
666	0.0696846
678	0.0687267
690	0.0683675
702	0.0605849
714	0.0719595
726	0.0796224
738	0.0926733
750	0.120451
762	0.184628
774	0.261018
786	0.298375
798	0.285563
810	0.218034
822	0.185706
834	0.180198
846	0.173373
858	0.16571
870	0.12117
882	0.107041
894	0.108598
906	0.11219
918	0.111232
930	0.109196
942	0.0923141
954	0.0866867
966	0.105126
978	0.127516
990	0.203426
1002	0.31849
1014	0.375123
1026	0.366024
1038	0.423615
1050	0.670265
1062	1.08742
1074	1.15878
1086	0.909731
1098	0.779701
1110	0.658771
1122	0.635782
1134	0.714686
1146	0.633986
1158	0.448759
1170	0.315257
1182	0.25563
1194	0.229049
1206	0.189178
1218	0.133023
1230	0.103928
1242	0.0915957
1254	0.0924339
1266	0.100935
1278	0.108239
1290	0.108119
1302	0.120811
1314	0.135897
1326	0.148229
1338	0.195285
1350	0.21061
1362	0.163675
1374	0.234078
1386	0.223182
1398	0.159963
1410	0.127037
1422	0.102491
1434	0.0939904
1446	0.119254
1458	0.126558
1470	0.106922
1482	0.0969837
1494	0.0830947
1506	0.0706425
1518	0.0639374
1530	0.057831
1542	0.0593876
1554	0.057831
1566	0.0573521
1578	0.059627
1590	0.0665715
1602	0.0835736
1614	0.106922
1626	0.114704
1638	0.0953075
1650	0.0760305
1662	0.0592678
1674	0.0587889
1686	0.0574718
1698	0.0532812
1710	0.0537601
1722	0.0550772
1734	0.0496892
1746	0.0444209
1758	0.0383146
1770	0.0452591
1782	0.0471748
1794	0.0474143
1806	0.0478932
1818	0.0478932
1830	0.0484919
1842	0.0478932
1854	0.0482524
1866	0.0496892
1878	0.0492103
1890	0.0506471
1902	0.0508865
1914	0.0516049
1926	0.0518444
1938	0.0520839
1950	0.0524431
1962	0.0524431
1974	0.0523233
1986	0.0514852
1998	0.0498089
2010	0.0487313
2022	0.0481327
2034	0.0469353
2046	0.0464564
2058	0.0458577
2070	0.0453788
2082	0.0458577
2094	0.0462169
2106	0.0462169
2118	0.0464564
2130	0.0466959
2142	0.0471748
2154	0.047534
2166	0.0476537
2178	0.047534
2190	0.0469353
2202	0.0462169
2214	0.0452591
2226	0.0452591
2238	0.0448999
2250	0.0447801
2262	0.0451393
2274	0.0452591
2286	0.0440617
2298	0.0432236
2310	0.0423855
2322	0.0422657
2334	0.0432236
2346	0.0427447
2358	0.0425052
2370	0.043942
2382	0.0441815
2394	0.0446604
2406	0.0454985
2418	0.045738
2430	0.0460972
2442	0.0460972
2454	0.0456183
2466	0.0451393
2478	0.0456183
2490	0.0458577
2502	0.0456183
2514	0.0459775
2526	0.0460972
2538	0.0465761
2550	0.0474143
2562	0.0476537
2574	0.0487313
2586	0.0510063
2598	0.0519641
2610	0.0551969
2622	0.0586692
2634	0.0608244
2646	0.0611836
2658	0.0611836
2670	0.0617822
2682	0.0620217
2694	0.0626204
2706	0.0642966
2718	0.0677689
2730	0.072199
2742	0.0779462
2754	0.0841723
2766	0.0911168
2778	0.0984205
2790	0.106922
2802	0.115542
2814	0.123086
2826	0.140447
2838	0.173972
2850	0.22402
2862	0.313341
2874	0.458098
2886	0.541433
2898	0.470311
2910	0.444808
2922	0.466959
2934	0.521437
2946	0.553047
2958	0.465522
2970	0.470551
2982	0.697684
2994	0.507668
3006	0.21097
3018	0.142243
3030	0.108598
3042	0.0869262
3054	0.0731569
3066	0.0671702
3078	0.0640572
3090	0.0602257
3102	0.0575916
3114	0.0557956
3126	0.054718
3138	0.0543588
3150	0.054239
3162	0.0531615
3174	0.0535207
3186	0.0537601
3198	0.0535207
3210	0.0518444
3222	0.0510063
3234	0.0495695
3246	0.0481327
3258	0.0466959
3270	0.0458577
3282	0.0454985
3294	0.0450196
3306	0.0452591
3318	0.0448999
3330	0.0452591
3342	0.0468156
3354	0.0502879
3366	0.0483721
3378	0.0447801
3390	0.0445407
3402	0.0474143
3414	0.0535207
3426	0.0536404
3438	0.0476537
3450	0.0443012
3462	0.0447801
3474	0.0437025
3486	0.0429841
3498	0.0434631
3510	0.0433433
3522	0.0434631
3534	0.0435828
3546	0.0434631
3558	0.0423855
3570	0.0459775
3582	0.0434631
3594	0.0458577
3606	0.0445407
3618	0.0447801
3630	0.0472945
3642	0.0482524
3654	0.0538798
3666	0.0506471
3678	0.0514852
3690	0.0517247
3702	0.0488511
3714	0.0463367
3726	0.0431039
3738	0.0464564
3750	0.0474143
3762	0.043942
3774	0.0431039
3786	0.0429841
3798	0.0448999
3810	0.0417868
3822	0.0437025
3834	0.0428644
3846	0.0452591
3858	0.0438223
3870	0.0452591
3882	0.0448999
3894	0.0426249
3906	0.0444209
3918	0.0454985
3930	0.0440617
3942	0.0435828
3954	0.0450196
3966	0.0464564
