Infrared Spectrum: Butanedioic acid, dipentyl ester
Formula: C 14 H 26 O 4
CAS: 645-69-2
Origin: Sadtler Research Labs Under US-EPA Contract
1/CM	ABSORBANCE
450	0.00183002
462	0.000413231
474	0.00059033
486	0.000944528
498	0.00348295
510	0.000826462
522	0.00395521
534	0.00283358
546	0.00513587
558	0.00732009
570	0.00944528
582	0.00755622
594	0.00619847
606	0.00377811
618	0.00531297
630	0.00867785
642	0.0128102
654	0.00920915
666	0.00436844
678	0.00436844
690	0.00844172
702	0.0060804
714	0.00667073
726	0.00926818
738	0.0100356
750	0.00726106
762	0.00974045
774	0.00920915
786	0.00926818
798	0.00974045
810	0.0119837
822	0.0145812
834	0.0137547
846	0.0177689
858	0.0170605
870	0.0206025
882	0.0181231
894	0.0182412
906	0.014286
918	0.0151124
930	0.0158208
942	0.019658
954	0.0254432
966	0.0376631
978	0.0783958
990	0.0923866
1002	0.0774513
1014	0.0671796
1026	0.0740864
1038	0.0877821
1050	0.0886085
1062	0.0668844
1074	0.0614534
1086	0.0430941
1098	0.0434483
1110	0.0600956
1122	0.101005
1134	0.166827
1146	0.306676
1158	0.504378
1170	0.399712
1182	0.261752
1194	0.202896
1206	0.20083
1218	0.201775
1230	0.200476
1242	0.207737
1254	0.196875
1266	0.174738
1278	0.146756
1290	0.123851
1302	0.101537
1314	0.0931541
1326	0.0812884
1338	0.0895531
1350	0.116295
1362	0.0925637
1374	0.0602137
1386	0.0687144
1398	0.0566126
1410	0.0368956
1422	0.05006
1434	0.0559043
1446	0.0526574
1458	0.0613943
1470	0.0613353
1482	0.0345343
1494	0.0181822
1506	0.014286
1518	0.0110392
1530	0.00755622
1542	0.0108621
1554	0.0066117
1566	0.00549007
1578	0.00619847
1590	0.00430941
1602	0.00389618
1614	0.00442748
1626	0.00560814
1638	0.00755622
1650	0.00720203
1662	0.00820559
1674	0.010803
1686	0.016116
1698	0.0213109
1710	0.0345933
1722	0.059033
1734	0.118361
1746	0.337196
1758	0.580353
1770	0.229225
1782	0.0900253
1794	0.0478167
1806	0.0247939
1818	0.0145221
1830	0.0102127
1842	0.00655266
1854	0.0051949
1866	0.00407328
1878	0.00360101
1890	0.00306972
1902	0.00265649
1914	0.00265649
1926	0.00247939
1938	0.00194809
1950	0.00218422
1962	0.00212519
1974	0.00206616
1986	0.00200712
1998	0.00206616
2010	0.00265649
2022	0.00253842
2034	0.00301068
2046	0.00306972
2058	0.00242035
2070	0.00247939
2082	0.00194809
2094	0.00188906
2106	0.00123969
2118	0.00135776
2130	0.000885495
2142	0.00129873
2154	0.000826462
2166	0.000295165
2178	0.000295165
2190	0.000295165
2202	0.000236132
2214	0.000826462
2226	0.00059033
2238	0.000708396
2250	0.000236132
2262	0.000236132
2274	0.000236132
2286	0.000236132
2298	0.000708396
2310	0.00112163
2322	0.00165292
2334	0.00224325
2346	0.00360101
2358	0.00466361
2370	0.00454554
2382	0.00218422
2394	0.000649363
2406	0.000531297
2418	0.000531297
2430	0.000531297
2442	0.000236132
2454	5.9033e-05
2466	0
2478	0
2490	0
2502	0
2514	0
2526	0
2538	0.000236132
2550	0.000236132
2562	0.000472264
2574	0.00059033
2586	0.00112163
2598	0.00118066
2610	0.00129873
2622	0.00135776
2634	0.00194809
2646	0.00165292
2658	0.00206616
2670	0.00265649
2682	0.00366005
2694	0.00371908
2706	0.00389618
2718	0.00430941
2730	0.00442748
2742	0.0060804
2754	0.0060804
2766	0.00667073
2778	0.00672976
2790	0.00785139
2802	0.00956335
2814	0.0119247
2826	0.0158208
2838	0.0236132
2850	0.0406737
2862	0.0775103
2874	0.11293
2886	0.118479
2898	0.101714
2910	0.121431
2922	0.171491
2934	0.257561
2946	0.285366
2958	0.261339
2970	0.318306
2982	0.176686
2994	0.0844762
3006	0.0426809
3018	0.024971
3030	0.0170605
3042	0.0123969
3054	0.00879592
3066	0.00732009
3078	0.0064346
3090	0.00584427
3102	0.00501781
3114	0.00454554
3126	0.00401424
3138	0.00371908
3150	0.00283358
3162	0.00324682
3174	0.00289262
3186	0.00247939
3198	0.00253842
3210	0.00212519
3222	0.00165292
3234	0.00159389
3246	0.00141679
3258	0.00177099
3270	0.00129873
3282	0.00100356
3294	0.00100356
3306	0.00118066
3318	0.00112163
3330	0.000767429
3342	0.000885495
3354	0.000767429
3366	0.00153486
3378	0.000531297
3390	0.00153486
3402	0.000236132
3414	0.000295165
3426	0.000708396
3438	0.000354198
3450	0.00118066
3462	0.00112163
3474	0.00253842
3486	0.00407328
3498	0.00360101
3510	0.00224325
3522	0.00118066
3534	0.000885495
3546	0.000885495
3558	0.000472264
3570	0.00301068
3582	0.00413231
3594	0.00218422
3606	0.00112163
3618	0.00153486
3630	0.00371908
3642	0.00230229
3654	0.00389618
3666	0.00360101
3678	0.0059033
3690	0.00619847
3702	0.00578523
3714	0.00720203
3726	0.00791042
3738	0.00985851
3750	0.0114524
3762	0.0110982
3774	0.0110982
3786	0.0114524
3798	0.0132824
3810	0.0139318
3822	0.0145221
3834	0.0149353
3846	0.0145812
3858	0.0156437
3870	0.016175
3882	0.016175
3894	0.0148173
3906	0.0153486
3918	0.0144631
3930	0.0150534
3942	0.014286
3954	0.000885495
3966	0.00212519
