Infrared Spectrum: Tetracosane
Formula: C 24 H 50
CAS: 646-31-1
Origin: Sadtler Research Labs Under US-EPA Contract
1/CM	ABSORBANCE
450	0.00316355
462	0.0143996
474	0.0157087
486	0.0128724
498	0.0154905
510	0.0110179
522	0.0100361
534	0.0130906
546	0.0102543
558	0.0104724
570	0.00709072
582	0.00392717
594	0.00654528
606	0.00578166
618	0.00327264
630	0.00316355
642	0.00469078
654	0.00469078
666	0.00479987
678	0.00523622
690	0.00599984
702	0.00992701
714	0.0178904
726	0.0178904
738	0.0135269
750	0.0102543
762	0.00970883
774	0.0090543
786	0.00741798
798	0.00709072
810	0.00676346
822	0.00719981
834	0.00719981
846	0.00687254
858	0.00763616
870	0.00654528
882	0.00719981
894	0.00807251
906	0.0073089
918	0.00676346
930	0.00676346
942	0.00621802
954	0.00654528
966	0.0063271
978	0.00589075
990	0.00621802
1002	0.00589075
1014	0.0063271
1026	0.00599984
1038	0.00643619
1050	0.00698163
1062	0.00709072
1074	0.0073089
1086	0.00687254
1098	0.00654528
1110	0.00621802
1122	0.00610893
1134	0.00610893
1146	0.00578166
1158	0.00589075
1170	0.00567258
1182	0.00599984
1194	0.00610893
1206	0.00599984
1218	0.00654528
1230	0.00785434
1242	0.00949066
1254	0.0090543
1266	0.00970883
1278	0.0110179
1290	0.0137451
1302	0.017345
1314	0.0172359
1326	0.0146178
1338	0.0195268
1350	0.0283629
1362	0.0266175
1374	0.0203995
1386	0.0176723
1398	0.0114542
1410	0.0101452
1422	0.0116724
1434	0.0178904
1446	0.0379626
1458	0.0662164
1470	0.0606529
1482	0.0231267
1494	0.0109088
1506	0.00752707
1518	0.00534531
1530	0.00479987
1542	0.00414534
1554	0.00403626
1566	0.00316355
1578	0.00305446
1590	0.00261811
1602	0.00229085
1614	0.00261811
1626	0.00239994
1638	0.00239994
1650	0.00283629
1662	0.00207267
1674	0.00250902
1686	0.00218176
1698	0.0018545
1710	0.00294538
1722	0.00316355
1734	0.00338173
1746	0.00479987
1758	0.00305446
1770	0.00207267
1782	0.00196358
1794	0.00152723
1806	0.00163632
1818	0.00141814
1830	0.000981792
1842	0.00109088
1854	0.000872704
1866	0.000654528
1878	0.00054544
1890	0.000763616
1902	0.00054544
1914	0.000654528
1926	0.00054544
1938	0.00054544
1950	0.00054544
1962	0.000327264
1974	0.000218176
1986	0.000327264
1998	0.00054544
2010	0.000436352
2022	0.00109088
2034	0.000981792
2046	0.00130906
2058	0.000981792
2070	0.000872704
2082	0.000763616
2094	0.000763616
2106	0.000436352
2118	0.00054544
2130	0.000763616
2142	0.000981792
2154	0.000763616
2166	0.000872704
2178	0.000872704
2190	0.000763616
2202	0.000327264
2214	0.00054544
2226	0.000327264
2238	0.000218176
2250	0.000218176
2262	0
2274	0.000109088
2286	0.000436352
2298	0.000872704
2310	0.000872704
2322	0.00054544
2334	0.000109088
2346	0
2358	0.000436352
2370	0
2382	0.000654528
2394	0.000436352
2406	0.000327264
2418	0.00054544
2430	0.000218176
2442	0.000109088
2454	0.000218176
2466	0.000654528
2478	0.000763616
2490	0.000654528
2502	0.000763616
2514	0.000981792
2526	0.00163632
2538	0.0018545
2550	0.0018545
2562	0.00229085
2574	0.0027272
2586	0.00338173
2598	0.00381808
2610	0.00425443
2622	0.00501805
2634	0.00567258
2646	0.0063271
2658	0.00687254
2670	0.00774525
2682	0.00883613
2694	0.00861795
2706	0.00807251
2718	0.00719981
2730	0.0073089
2742	0.00872704
2754	0.00916339
2766	0.0101452
2778	0.0118906
2790	0.0158178
2802	0.021054
2814	0.0277084
2826	0.0386172
2838	0.0598893
2850	0.141269
2862	0.402535
2874	0.262466
2886	0.17825
2898	0.185122
2910	0.312864
2922	0.603693
2934	1.09088
2946	0.563112
2958	0.260066
2970	0.229412
2982	0.102325
2994	0.0515986
3006	0.0329446
3018	0.0233448
3030	0.0170177
3042	0.0133087
3054	0.0100361
3066	0.00850886
3078	0.00709072
3090	0.00589075
3102	0.00512714
3114	0.0045817
3126	0.00381808
3138	0.00381808
3150	0.00349082
3162	0.0027272
3174	0.00239994
3186	0.00239994
3198	0.0018545
3210	0.00141814
3222	0.00109088
3234	0.000763616
3246	0.00109088
3258	0.00054544
3270	0.000654528
3282	0.00054544
3294	0.000654528
3306	0.000436352
3318	0.00054544
3330	0.000436352
3342	0.00109088
3354	0.00054544
3366	0.000981792
3378	0.000872704
3390	0.00119997
3402	0.000654528
3414	0.000872704
3426	0.00054544
3438	0.000436352
3450	0.000654528
3462	0.00054544
3474	0.000654528
3486	0.000436352
3498	0.00054544
3510	0.000654528
3522	0.00054544
3534	0.000218176
3546	0.000872704
3558	0.00054544
3570	0.00054544
3582	0.00141814
3594	0.00163632
3606	0.00229085
3618	0.00229085
3630	0.00349082
3642	0.00294538
3654	0.00250902
3666	0.00196358
3678	0.0027272
3690	0.0018545
3702	0.00305446
3714	0.00229085
3726	0.00163632
3738	0.00196358
3750	0.00349082
3762	0.00174541
3774	0.00250902
3786	0.00141814
3798	0.00152723
3810	0.00250902
3822	0.000981792
3834	0.00261811
3846	0.00119997
3858	0.000763616
3870	0.00174541
3882	0.00109088
3894	0.000872704
3906	0.00261811
3918	0.00218176
3930	0.00163632
3942	0.00163632
3954	0.00218176
3966	0.0018545
