Infrared Spectrum: Pentanoic acid, 4-methyl-
Formula: C 6 H 12 O 2
CAS: 646-07-1
Origin: Sadtler Research Labs Under US-EPA Contract
1/CM	ABSORBANCE
450	0.0207881
462	0.0357705
474	0.0339913
486	0.0307139
498	0.0541239
510	0.07126
522	0.0767848
534	0.0808113
546	0.106188
558	0.144393
570	0.160124
582	0.153382
594	0.173889
606	0.176324
618	0.177635
630	0.146547
642	0.118455
654	0.0633943
666	0.0526257
678	0.0373624
690	0.0353959
702	0.0322122
714	0.0277174
726	0.0242528
738	0.0146078
750	0.0105813
762	0.0162934
774	0.0243464
786	0.0232227
798	0.0155442
810	0.00533748
822	0.00224736
834	0.00131096
846	0.00028092
858	0.00196644
870	0.00543112
882	0.00992584
894	0.0160124
906	0.019758
918	0.0192898
930	0.0204135
942	0.0183534
954	0.0159188
966	0.0215372
978	0.0208817
990	0.0167616
1002	0.015357
1014	0.0162934
1026	0.0215372
1038	0.0292157
1050	0.0462582
1062	0.0856806
1074	0.186812
1086	0.364166
1098	0.488801
1110	0.427935
1122	0.291127
1134	0.326523
1146	0.381115
1158	0.310885
1170	0.232134
1182	0.158907
1194	0.103659
1206	0.0921418
1218	0.0937336
1230	0.0765975
1242	0.0695745
1254	0.0731328
1266	0.0753802
1278	0.0750993
1290	0.066859
1302	0.0562776
1314	0.0519702
1326	0.0597423
1338	0.081935
1350	0.110214
1362	0.12426
1374	0.158907
1386	0.17314
1398	0.125759
1410	0.0636752
1422	0.0535621
1434	0.0568395
1446	0.0620833
1458	0.0861488
1470	0.0958874
1482	0.0622706
1494	0.0248146
1506	0.00992584
1518	0.0056184
1530	0.00299648
1542	0.00271556
1554	0.00177916
1566	0.00177916
1578	0.00224736
1590	0.00159188
1602	0.00224736
1614	0.00262192
1626	0.00262192
1638	0.00346468
1650	0.0042138
1662	0.00589932
1674	0.00814668
1686	0.0118923
1698	0.0180725
1710	0.0312758
1722	0.0612406
1734	0.106281
1746	0.187748
1758	0.375871
1770	0.752585
1782	0.9364
1794	0.577384
1806	0.233538
1818	0.0961683
1830	0.0407334
1842	0.0201326
1854	0.0120796
1866	0.00945764
1878	0.00758484
1890	0.00664844
1902	0.0060866
1914	0.00533748
1926	0.004682
1938	0.00458836
1950	0.00430744
1962	0.00383924
1974	0.00355832
1986	0.00412016
1998	0.00402652
2010	0.00383924
2022	0.00309012
2034	0.00196644
2046	0.00168552
2058	0.00159188
2070	0
2082	9.364e-05
2094	0.0014046
2106	0.00196644
2118	0.00215372
2130	0.00224736
2142	0.00243464
2154	0.00243464
2166	0.00271556
2178	0.00299648
2190	0.00346468
2202	0.00365196
2214	0.00346468
2226	0.00337104
2238	0.00365196
2250	0.00365196
2262	0.0032774
2274	0.00309012
2286	0.00299648
2298	0.00346468
2310	0.00505656
2322	0.00524384
2334	0.0028092
2346	0.00159188
2358	0.004682
2370	0
2382	9.364e-05
2394	0.00149824
2406	0.0014046
2418	0.00121732
2430	0.0009364
2442	0.00074912
2454	0.0004682
2466	0.00084276
2478	0.0009364
2490	0.00112368
2502	0.0009364
2514	0.00103004
2526	0.00074912
2538	0.00037456
2550	0.0009364
2562	0.00074912
2574	0.00131096
2586	0.00168552
2598	0.00262192
2610	0.00393288
2622	0.00430744
2634	0.00449472
2646	0.00477564
2658	0.00580568
2670	0.00337104
2682	0.00309012
2694	0.00318376
2706	0.00318376
2718	0.00486928
2730	0.00683572
2742	0.00758484
2754	0.00683572
2766	0.0065548
2778	0.00721028
2790	0.0074912
2802	0.0108622
2814	0.0152633
2826	0.018728
2838	0.0228482
2850	0.0360514
2862	0.0710728
2874	0.157783
2886	0.201326
2898	0.164432
2910	0.171642
2922	0.21996
2934	0.294217
2946	0.346281
2958	0.447318
2970	0.623736
2982	0.304985
2994	0.0848378
3006	0.0382988
3018	0.0209754
3030	0.0145142
3042	0.0116114
3054	0.00992584
3066	0.00908308
3078	0.00964492
3090	0.009364
3102	0.0088958
3114	0.00833396
3126	0.00721028
3138	0.00664844
3150	0.0079594
3162	0.0060866
3174	0.00908308
3186	0.0079594
3198	0.00898944
3210	0.00627388
3222	0.00524384
3234	0.0032774
3246	0.00224736
3258	0.0018728
3270	0.00262192
3282	0.0018728
3294	0.00262192
3306	0.00252828
3318	0.00346468
3330	0.0018728
3342	0.00243464
3354	0.00402652
3366	0.00215372
3378	0.002341
3390	0.0028092
3402	0.00074912
3414	0.00131096
3426	0.00103004
3438	0.0014046
3450	0.00028092
3462	0.00177916
3474	0.00168552
3486	0.00206008
3498	0.0051502
3510	0.0056184
3522	0.00898944
3534	0.0136714
3546	0.0176043
3558	0.0368005
3570	0.261162
3582	0.333265
3594	0.0539366
3606	0.0122668
3618	0.00739756
3630	0.00711664
3642	0.00290284
3654	0.00318376
3666	0.00318376
3678	0.002341
3690	0.00533748
3702	0.00402652
3714	0.00533748
3726	0.00206008
3738	0.0084276
3750	0.00477564
3762	0.00177916
3774	0.0032774
3786	0.00393288
3798	0.004682
3810	0.0065548
3822	0.00627388
3834	0.0042138
3846	0.0028092
3858	0.00112368
3870	0.00599296
3882	0.00505656
3894	0.00131096
3906	0.00627388
3918	0.00365196
3930	0.00627388
3942	0.00599296
3954	0.00224736
3966	0.00627388
