Infrared Spectrum: 2-Cyclohexen-1-one, 2-methyl-5-(1-methylethenyl)-, (R)-
Formula: C 10 H 14 O
CAS: 6485-40-1
Origin: Sadtler Research Labs Under US-EPA Contract
1/CM	ABSORBANCE
450	0.00167688
462	0.00391272
474	0.0083285
486	0.00709879
498	0.00609266
510	0.00732238
522	0.0055896
534	0.00190046
546	0.00368914
558	0.00883157
570	0.0083844
582	0.00234763
594	0.00100613
606	0.00251532
618	0.00340966
630	0.00329786
642	0.00257122
654	0.00100613
666	0.00313018
678	0.00771365
690	0.0102849
702	0.0105084
714	0.00877567
726	0.00519833
738	0.0041922
750	0.00234763
762	0.00245942
774	0.00229174
786	0.0055337
798	0.0113469
810	0.0103967
822	0.00514243
834	0.00435989
846	0.00452758
858	0.00665162
870	0.0097818
882	0.0342642
894	0.0982093
906	0.077416
918	0.0205138
930	0.0101731
942	0.00866388
954	0.010229
966	0.0098377
978	0.00776954
990	0.0121294
1002	0.0145889
1014	0.0136945
1026	0.0167129
1038	0.0193959
1050	0.0229174
1062	0.018837
1074	0.0130797
1086	0.0202344
1098	0.0488531
1110	0.0821671
1122	0.0453876
1134	0.0190605
1146	0.0176631
1158	0.0106202
1170	0.00665162
1182	0.00653983
1194	0.00894336
1206	0.0145889
1218	0.0130238
1230	0.0221348
1242	0.0421456
1254	0.03119
1266	0.0212405
1278	0.0117382
1290	0.0111233
1302	0.0120176
1314	0.0134709
1326	0.0188928
1338	0.0223025
1350	0.0405246
1362	0.0726648
1374	0.0792046
1386	0.0594733
1398	0.0307428
1410	0.0233086
1422	0.0328668
1434	0.048909
1446	0.0611502
1458	0.0533248
1470	0.0276685
1482	0.0119617
1494	0.0070429
1506	0.00340966
1518	0.00324197
1530	0.00335376
1542	0.00307428
1554	0.00514243
1566	0.00676342
1578	0.00648394
1590	0.00782544
1602	0.0101731
1614	0.0110115
1626	0.0157068
1638	0.0368355
1650	0.0565668
1662	0.0405246
1674	0.0513684
1686	0.198878
1698	0.55896
1710	0.233869
1722	0.0356058
1734	0.0135827
1746	0.0083844
1758	0.006987
1770	0.00609266
1782	0.00642804
1794	0.00955822
1806	0.0102849
1818	0.00542191
1830	0.00245942
1842	0.00128561
1854	0.00234763
1866	0.00122971
1878	0.00184457
1890	0.0014533
1902	0.00167688
1914	0.00190046
1926	0.00212405
1938	0.00245942
1950	0.00223584
1962	0.0013974
1974	0.0013415
1986	0.00156509
1998	0.00111792
2010	0.0013974
2022	0.00167688
2034	0.0013974
2046	0.00223584
2058	0.00190046
2070	0.00234763
2082	0.00178867
2094	0.00122971
2106	0.0013415
2118	0.00128561
2130	0.00178867
2142	0.00128561
2154	0.00128561
2166	0.00106202
2178	0.00083844
2190	0.00083844
2202	0.00173278
2214	0.00184457
2226	0.00173278
2238	0.00178867
2250	0.00167688
2262	0.00111792
2274	0.00111792
2286	0.000950232
2298	0.000503064
2310	0.000503064
2322	0.00055896
2334	0.000167688
2346	0.00055896
2358	0.000614856
2370	0.00106202
2382	0.000447168
2394	0.00117382
2406	0.00117382
2418	0.00167688
2430	0.00173278
2442	0.00128561
2454	0.00162098
2466	0.00173278
2478	0.00173278
2490	0.00190046
2502	0.00167688
2514	0.00117382
2526	0.00128561
2538	0.0014533
2550	0.00173278
2562	0.00162098
2574	0.00162098
2586	0.00173278
2598	0.00167688
2610	0.00173278
2622	0.00206815
2634	0.00156509
2646	0.00156509
2658	0.00167688
2670	0.00162098
2682	0.00162098
2694	0.00150919
2706	0.00190046
2718	0.00190046
2730	0.00257122
2742	0.00452758
2754	0.00380093
2766	0.00346555
2778	0.00352145
2790	0.00402451
2802	0.00491885
2814	0.00765775
2826	0.0119617
2838	0.0244824
2850	0.0349909
2862	0.042481
2874	0.0474557
2886	0.0581318
2898	0.090272
2910	0.0838999
2922	0.0788134
2934	0.138119
2946	0.0978739
2958	0.0652306
2970	0.0951909
2982	0.129399
2994	0.0817758
3006	0.0470644
3018	0.0397421
3030	0.0379534
3042	0.0219671
3054	0.0136386
3066	0.0146448
3078	0.0312459
3090	0.0458906
3102	0.0256004
3114	0.00614856
3126	0.00385682
3138	0.00251532
3150	0.00195636
3162	0.00083844
3174	0.0013974
3186	0.000950232
3198	0.00083844
3210	0.000782544
3222	0.000894336
3234	0.00122971
3246	0.00111792
3258	0.000670752
3270	0.000950232
3282	0.00190046
3294	0.000503064
3306	0.000782544
3318	0.000950232
3330	0.00100613
3342	0.0013974
3354	0.00184457
3366	0.00570139
3378	0.00871978
3390	0.00514243
3402	0.0013415
3414	0.000447168
3426	0.000447168
3438	0.000503064
3450	0.000447168
3462	0.00100613
3474	0.000447168
3486	0.000391272
3498	0.000782544
3510	0.00111792
3522	0.00055896
3534	0.00100613
3546	0.00122971
3558	0.000223584
3570	0.00122971
3582	0.00083844
3594	0.000726648
3606	0.00117382
3618	0.00117382
3630	0.00190046
3642	0.000614856
3654	0.00055896
3666	0.000111792
3678	0.000614856
3690	0.000447168
3702	0.000447168
3714	0
3726	0
3738	0
3750	0
3762	0.00027948
3774	0.000167688
3786	5.5896e-05
3798	0
3810	0
3822	5.5896e-05
3834	5.5896e-05
3846	0.000614856
3858	0.000950232
3870	0.000391272
3882	0.000782544
3894	0.000391272
3906	0.000726648
3918	0.000223584
3930	0.000670752
3942	0.000670752
3954	0.00055896
3966	0.000614856
