Infrared Spectrum: 2-Norbornaneacetic acid
Formula: C 9 H 14 O 2
CAS: 6485-19-4
Origin: Sadtler Research Labs Under US-EPA Contract
1/CM	ABSORBANCE
450	0.00128958
462	0.00219229
474	0.00386874
486	0.0112193
498	0.0241151
510	0.0432009
522	0.0372689
534	0.039977
546	0.0724744
558	0.127411
570	0.125347
582	0.0919471
594	0.0905285
606	0.12625
618	0.141854
630	0.155523
642	0.119802
654	0.0696373
666	0.049262
678	0.0548072
690	0.0539044
702	0.0343028
714	0.0220518
726	0.00954289
738	0.00386874
750	0.0064479
762	0.00348187
774	0.00335291
786	0.0024502
798	0.00335291
810	0.00580311
822	0.00606103
834	0.00773748
846	0.012251
858	0.0139275
870	0.0163777
882	0.0161198
894	0.0159908
906	0.0121221
918	0.0140564
930	0.01857
942	0.0192147
954	0.024502
966	0.0188279
978	0.00980081
990	0.0112193
1002	0.0159908
1014	0.0232124
1026	0.0303051
1038	0.0370109
1050	0.0484882
1062	0.0697663
1074	0.121092
1086	0.223226
1098	0.364306
1110	0.550393
1122	0.463475
1134	0.240378
1146	0.209815
1158	0.233414
1170	0.21407
1182	0.12251
1194	0.0888521
1206	0.098266
1218	0.0949131
1230	0.0732481
1242	0.0635763
1254	0.0637053
1266	0.0732481
1278	0.067445
1290	0.0657686
1302	0.0722165
1314	0.0683477
1326	0.0606103
1338	0.0790513
1350	0.0994266
1362	0.0856281
1374	0.103682
1386	0.113354
1398	0.0647369
1410	0.0380426
1422	0.0437168
1434	0.0464249
1446	0.0513253
1458	0.0809856
1470	0.0535176
1482	0.0238572
1494	0.0101877
1506	0.0049004
1518	0.00283708
1530	0.00193437
1542	0.00116062
1554	0.00128958
1566	0.000902706
1578	0.00064479
1590	0.00116062
1602	0.00219229
1614	0.00270812
1626	0.00296603
1638	0.00335291
1650	0.0039977
1662	0.00502936
1674	0.0079954
1686	0.0136695
1698	0.0208912
1710	0.0350766
1722	0.0602234
1734	0.098266
1746	0.183636
1758	0.329359
1770	0.70914
1782	0.813725
1794	0.390227
1806	0.192921
1818	0.0804698
1830	0.0312078
1842	0.0168935
1854	0.00954289
1866	0.00696373
1878	0.00554519
1890	0.00412666
1902	0.00348187
1914	0.00309499
1926	0.00361082
1938	0.00361082
1950	0.00335291
1962	0.00309499
1974	0.00270812
1986	0.00232124
1998	0.00219229
2010	0.0015475
2022	0.0015475
2034	0.00141854
2046	0.00167645
2058	0.00180541
2070	0.00193437
2082	0.00128958
2094	0.00064479
2106	0.000773748
2118	0.00116062
2130	0.00103166
2142	0.00128958
2154	0.0015475
2166	0.00219229
2178	0.00232124
2190	0.00270812
2202	0.00283708
2214	0.00322395
2226	0.00322395
2238	0.00283708
2250	0.00270812
2262	0.00283708
2274	0.00296603
2286	0.00322395
2298	0.00335291
2310	0.00464249
2322	0.0039977
2334	0.00219229
2346	0.00206333
2358	0.000902706
2370	0.000386874
2382	0.00128958
2394	0
2406	0
2418	0
2430	0.000773748
2442	0.00116062
2454	0.00141854
2466	0.0015475
2478	0.0015475
2490	0.00128958
2502	0.00103166
2514	0.000773748
2526	0.00103166
2538	0.000902706
2550	0.00116062
2562	0.00141854
2574	0.00206333
2586	0.00193437
2598	0.00180541
2610	0.00219229
2622	0.00219229
2634	0.0015475
2646	0.00128958
2658	0.00116062
2670	0.0015475
2682	0.00180541
2694	0.0024502
2706	0.00296603
2718	0.00283708
2730	0.00219229
2742	0.00219229
2754	0.00219229
2766	0.00348187
2778	0.00451353
2790	0.0049004
2802	0.0049004
2814	0.00618998
2826	0.00851123
2838	0.0121221
2850	0.0228256
2862	0.0696373
2874	0.231995
2886	0.321492
2898	0.146238
2910	0.117868
2922	0.210846
2934	0.282934
2946	0.501518
2958	1.18087
2970	0.952097
2982	0.228514
2994	0.0606103
3006	0.0250179
3018	0.0156039
3030	0.0118641
3042	0.00928498
3054	0.00825331
3066	0.00657686
3078	0.00541624
3090	0.0049004
3102	0.00464249
3114	0.00464249
3126	0.00373978
3138	0.00296603
3150	0.00232124
3162	0.00206333
3174	0.00232124
3186	0.00296603
3198	0.00348187
3210	0.00322395
3222	0.00257916
3234	0.00180541
3246	0.0015475
3258	0.00128958
3270	0.00128958
3282	0.00116062
3294	0.0015475
3306	0.0015475
3318	0.00128958
3330	0.00193437
3342	0.00167645
3354	0.00219229
3366	0.00128958
3378	0.000902706
3390	0.000902706
3402	0.00103166
3414	0.00206333
3426	0.00206333
3438	0.00064479
3450	0.000773748
3462	0.00064479
3474	0.000257916
3486	0.000773748
3498	0.0015475
3510	0.00386874
3522	0.00580311
3534	0.00606103
3546	0.0103166
3558	0.030563
3570	0.293122
3582	0.267975
3594	0.0243731
3606	0.00670582
3618	0.00438457
3630	0.0039977
3642	0.00283708
3654	0.00335291
3666	0.00180541
3678	0.00283708
3690	0.00309499
3702	0.0024502
3714	0.00528728
3726	0.00554519
3738	0.00502936
3750	0.00580311
3762	0.00270812
3774	0.00180541
3786	0.00219229
3798	0.00283708
3810	0.00193437
3822	0.0039977
3834	0.00322395
3846	0.00270812
3858	0.00309499
3870	0.00438457
3882	0.00580311
3894	0.00438457
3906	0.0049004
3918	0.00373978
3930	0.00257916
3942	0.00283708
3954	0.00128958
3966	0.0015475
