Infrared Spectrum: 3-Cyclohexene-1-carboxylic acid, methyl ester
Formula: C 8 H 12 O 2
CAS: 6493-77-2
Origin: Sadtler Research Labs Under US-EPA Contract
1/CM	ABSORBANCE
450	0.00477039
462	0.00334764
474	0.00845279
486	0.00686266
498	0.00677897
510	0.00661159
522	0.00686266
534	0.00259442
546	0.00259442
558	0.0056073
570	0.004603
582	0.00485408
594	0.00543992
606	0.00669528
618	0.0140601
630	0.0315515
642	0.0797575
654	0.113987
666	0.103024
678	0.0728112
690	0.0403391
702	0.0266974
714	0.0185794
726	0.020588
738	0.0161524
750	0.013809
762	0.0176588
774	0.0218434
786	0.014897
798	0.0128884
810	0.014897
822	0.0167382
834	0.0132232
846	0.0179099
858	0.0226803
870	0.0234335
882	0.0239356
894	0.0324721
906	0.0433519
918	0.0440215
930	0.0325558
942	0.0282039
954	0.0246052
966	0.0181609
978	0.0158176
990	0.0195837
1002	0.0347318
1014	0.0841095
1026	0.170897
1038	0.140517
1050	0.105451
1062	0.101266
1074	0.078
1086	0.0533112
1098	0.0509678
1110	0.0438541
1122	0.0553198
1134	0.100764
1146	0.188723
1158	0.452434
1170	0.783097
1182	0.497961
1194	0.384728
1206	0.336773
1218	0.410337
1230	0.43377
1242	0.275092
1254	0.239858
1266	0.211487
1278	0.152569
1290	0.15985
1302	0.220107
1314	0.198013
1326	0.108966
1338	0.0841931
1350	0.0600064
1362	0.0662833
1374	0.0987554
1386	0.0699657
1398	0.0352339
1410	0.0260279
1422	0.0342296
1434	0.14353
1446	0.203537
1458	0.109803
1470	0.0700494
1482	0.0359034
1494	0.0209228
1506	0.0171567
1518	0.0145622
1530	0.0139764
1542	0.0149807
1554	0.0121352
1566	0.0109635
1578	0.0108798
1590	0.0108798
1602	0.01247
1614	0.0140601
1626	0.0145622
1638	0.0153155
1650	0.0312167
1662	0.0304635
1674	0.015985
1686	0.0190815
1698	0.0292918
1710	0.0539807
1722	0.104279
1734	0.231322
1746	0.561985
1758	0.83691
1770	0.48591
1782	0.158846
1794	0.047118
1806	0.017324
1818	0.00811803
1830	0.00669528
1842	0.00669528
1854	0.00543992
1866	0.00585837
1878	0.00602575
1890	0.00585837
1902	0.00502146
1914	0.0056073
1926	0.00569099
1938	0.00477039
1950	0.00401717
1962	0.00393348
1974	0.00443562
1986	0.00552361
1998	0.00669528
2010	0.00585837
2022	0.00594206
2034	0.00669528
2046	0.00728112
2058	0.00677897
2070	0.00728112
2082	0.00686266
2094	0.00594206
2106	0.00535622
2118	0.00493777
2130	0.00426824
2142	0.00376609
2154	0.00301288
2166	0.00225966
2178	0.00159013
2190	0.00133906
2202	0.00159013
2214	0.00159013
2226	0.0018412
2238	0.0018412
2250	0.00142275
2262	0.00117167
2274	0.000753219
2286	0.00083691
2298	0.000753219
2310	0.000334764
2322	0.000167382
2334	0.00117167
2346	0.00284549
2358	0.00217597
2370	0.00318026
2382	0.0036824
2394	0.00301288
2406	0.00267811
2418	0.00125537
2430	0.000753219
2442	0.000669528
2454	0.000334764
2466	0.000669528
2478	0.000920601
2490	0.00142275
2502	0.00133906
2514	0.00125537
2526	0.00192489
2538	0.00133906
2550	0.00150644
2562	0.00159013
2574	0.00167382
2586	0.00192489
2598	0.00267811
2610	0.00259442
2622	0.0027618
2634	0.00267811
2646	0.00326395
2658	0.00493777
2670	0.00602575
2682	0.00451931
2694	0.00318026
2706	0.00292918
2718	0.00301288
2730	0.00334764
2742	0.00301288
2754	0.00376609
2766	0.00502146
2778	0.00769957
2790	0.00627682
2802	0.00736481
2814	0.0100429
2826	0.0180773
2838	0.0529764
2850	0.151564
2862	0.144534
2874	0.0937339
2886	0.098588
2898	0.145873
2910	0.186882
2922	0.274339
2934	0.328906
2946	0.286558
2958	0.366985
2970	0.261451
2982	0.10227
2994	0.0781674
3006	0.0714721
3018	0.0711374
3030	0.205629
3042	0.270824
3054	0.0520558
3066	0.0313004
3078	0.026279
3090	0.0164034
3102	0.0123863
3114	0.00987554
3126	0.00811803
3138	0.00602575
3150	0.00401717
3162	0.00326395
3174	0.00225966
3186	0.00292918
3198	0.00225966
3210	0.0018412
3222	0.00200858
3234	0.00167382
3246	0.00142275
3258	0.00192489
3270	0.00242704
3282	0.00225966
3294	0.00334764
3306	0.00343133
3318	0.0027618
3330	0.00251073
3342	0.00108798
3354	0.00175751
3366	0.00225966
3378	0.0018412
3390	0.00150644
3402	0.00251073
3414	0.00108798
3426	0.000251073
3438	0.00209227
3450	0.00150644
3462	0.00142275
3474	0.00426824
3486	0.00644421
3498	0.00820172
3510	0.00343133
3522	0.00100429
3534	8.3691e-05
3546	0.000502146
3558	0.000418455
3570	0.00125537
3582	0.00259442
3594	0.0018412
3606	0.00100429
3618	0.00100429
3630	0.00125537
3642	0.00167382
3654	0.00108798
3666	0.00100429
3678	0.00167382
3690	0.0018412
3702	0.00133906
3714	0.00209227
3726	0.00125537
3738	0.00133906
3750	0.00209227
3762	0.00142275
3774	0.00175751
3786	0.00108798
3798	0.000502146
3810	0.00175751
3822	0.00142275
3834	0.00150644
3846	0.00217597
3858	0.000418455
3870	0.000753219
3882	0
3894	0.00133906
3906	0.00175751
3918	0.000920601
3930	0.00267811
3942	0.00225966
3954	0.00150644
3966	0.00175751
