Infrared Spectrum: Benzoic Acid
Formula: C 7 H 6 O 2
CAS: 65-85-0
Origin: Sadtler Research Labs Under US-EPA Contract
1/CM	ABSORBANCE
450	0.0133933
462	0.0145188
474	0.0138435
486	0.0119302
498	0.0214969
510	0.0338772
522	0.0365784
534	0.0545863
546	0.0795721
558	0.0993808
570	0.150365
582	0.104896
594	0.0526729
606	0.0218345
618	0.0809227
630	0.207428
642	0.140686
654	0.0135059
666	0.0124929
678	0.0333145
690	0.117164
702	0.251097
714	0.4879
726	0.258075
738	0.0790094
750	0.0380416
762	0.0491839
774	0.0325267
786	0.00787843
798	0.00382667
810	0.00225098
822	0.00135059
834	0.00112549
846	0.00382667
858	0.00393922
870	0.00303882
882	0.00236353
894	0.00146314
906	0.00213843
918	0.00405176
930	0.00664039
942	0.00922902
954	0.010242
966	0.00742823
978	0.00619019
990	0.00619019
1002	0.00990431
1014	0.0474957
1026	0.0839616
1038	0.0638153
1050	0.121553
1062	0.254361
1074	0.374451
1086	0.354192
1098	0.227912
1110	0.0969047
1122	0.0745074
1134	0.0710184
1146	0.0751827
1158	0.138098
1170	0.428699
1182	0.548564
1194	0.290264
1206	0.0808102
1218	0.0387169
1230	0.0449071
1242	0.062127
1254	0.0823859
1266	0.0991557
1278	0.114012
1290	0.0967921
1302	0.0558243
1314	0.0554867
1326	0.0886886
1338	0.223522
1350	0.272369
1362	0.130107
1374	0.0633651
1386	0.0568372
1398	0.029938
1410	0.00979176
1422	0.0108047
1434	0.0189082
1446	0.0485086
1458	0.0491839
1470	0.0191333
1482	0.0104671
1494	0.0119302
1506	0.0138435
1518	0.0101294
1530	0.00889137
1542	0.0101294
1554	0.0123804
1566	0.0162071
1578	0.0198086
1590	0.0270118
1602	0.0395047
1614	0.0333145
1626	0.0103545
1638	0.00967921
1650	0.00810353
1662	0.00731568
1674	0.00416431
1686	0.0122678
1698	0.0291502
1710	0.0440067
1722	0.0507596
1734	0.093078
1746	0.367923
1758	1.0682
1770	1.12549
1782	0.204502
1794	0.0434439
1806	0.037929
1818	0.0474957
1830	0.0281372
1842	0.0130557
1854	0.00720314
1866	0.00360157
1878	0.00393922
1890	0.00562745
1902	0.00720314
1914	0.01148
1926	0.0104671
1938	0.00821608
1950	0.0124929
1962	0.0132808
1974	0.0106922
1986	0.00630274
1998	0.00146314
2010	0.000900392
2022	0.00146314
2034	0.000675294
2046	0.000900392
2058	0.00123804
2070	0.000112549
2082	0.000675294
2094	0.00123804
2106	0.00101294
2118	0.00225098
2130	0.00326392
2142	0.00382667
2154	0.00360157
2166	0.00270118
2178	0.00157569
2190	0.00112549
2202	0.00101294
2214	0.00123804
2226	0.00157569
2238	0.00146314
2250	0.00146314
2262	0.00191333
2274	0.00135059
2286	0.00168823
2298	0.00213843
2310	0.00225098
2322	0.00258863
2334	0.00281372
2346	0.00326392
2358	0.00416431
2370	0.00281372
2382	0.00258863
2394	0.00202588
2406	0.00258863
2418	0.00225098
2430	0.00247608
2442	0.00202588
2454	0.00101294
2466	0.00123804
2478	0.000900392
2490	0.00112549
2502	0.00168823
2514	0.00168823
2526	0.00157569
2538	0.00123804
2550	0.000675294
2562	0.000900392
2574	0.000562745
2586	0.000900392
2598	0.00168823
2610	0.00157569
2622	0.00101294
2634	0.00123804
2646	0.000787843
2658	0.000225098
2670	0.000900392
2682	0.00123804
2694	0.00112549
2706	0.000900392
2718	0.000562745
2730	0.000562745
2742	0.00112549
2754	0.00123804
2766	0.00191333
2778	0.00258863
2790	0.00191333
2802	0.00112549
2814	0.00101294
2826	0.00123804
2838	0.00281372
2850	0.00303882
2862	0.00281372
2874	0.00326392
2886	0.00236353
2898	0.00225098
2910	0.00258863
2922	0.00202588
2934	0.00270118
2946	0.00337647
2958	0.00292627
2970	0.00270118
2982	0.00303882
2994	0.00337647
3006	0.00607765
3018	0.00990431
3030	0.0166573
3042	0.0283623
3054	0.0399549
3066	0.0562745
3078	0.0745074
3090	0.056387
3102	0.0314012
3114	0.0195835
3126	0.00720314
3138	0.00303882
3150	0.00270118
3162	0.00270118
3174	0.00326392
3186	0.00180078
3198	0.000562745
3210	0.00101294
3222	0.000675294
3234	0.00101294
3246	0.000562745
3258	0.00123804
3270	0.000450196
3282	0.000225098
3294	0.000112549
3306	0.000337647
3318	0.000450196
3330	0.000112549
3342	0.000562745
3354	0.00112549
3366	0.00112549
3378	0.000337647
3390	0.000787843
3402	0.000225098
3414	0.00101294
3426	0.00202588
3438	0.00112549
3450	0.00168823
3462	0
3474	0.000675294
3486	0.00247608
3498	0.00664039
3510	0.00675294
3522	0.00348902
3534	0.000900392
3546	0.00292627
3558	0.0100169
3570	0.0997184
3582	0.338547
3594	0.273944
3606	0.0168824
3618	0.00281372
3630	0.00483961
3642	0.000450196
3654	0.00371412
3666	0.00202588
3678	0.000112549
3690	0.00281372
3702	0.00180078
3714	0.00281372
3726	0.00236353
3738	0.00281372
3750	0.00292627
3762	0.00292627
3774	0.000112549
3786	0.000675294
3798	0.000450196
3810	0.000450196
3822	0.00202588
3834	0.00180078
3846	0.000337647
3858	0.00270118
3870	0.00157569
3882	0.000112549
3894	0.00168823
3906	0.00270118
3918	0.00135059
3930	0.00146314
3942	0
3954	0.000675294
3966	0.00326392
