Infrared Spectrum: Benzene, 1,2,4,5-tetrafluoro-3,6-bis(trifluoromethyl)-
Formula: C 8 F 10
CAS: 651-89-8
Origin: Sadtler Research Labs Under US-EPA Contract
1/CM	ABSORBANCE
450	0.0122433
462	0.0105935
474	0.00920419
486	0.00477576
498	0.0112882
510	0.00755438
522	0.0115487
534	0.010854
546	0.0122433
558	0.0127643
570	0.00946469
582	0.0133721
594	0.0112013
606	0.00798854
618	0.0110277
630	0.00599141
642	0.0117223
654	0.0122433
666	0.021187
678	0.0119828
690	0.0089437
702	0.0151088
714	0.205531
726	0.0131116
738	0.0138063
750	0.0110277
762	0.00903053
774	0.00477576
786	0.00929102
798	0.0117223
810	0.00772805
822	0.0102462
834	0.0178006
846	0.0866583
858	0.0160639
870	0.011375
882	0.00807538
894	0.00929102
906	0.0109408
918	0.0112882
930	0.0194504
942	0.0191899
954	0.0116355
966	0.0125038
978	0.0145878
990	0.0487996
1002	0.295316
1014	0.0741545
1026	0.0122433
1038	0.0114618
1050	0.0145878
1062	0.019103
1074	0.0128511
1086	0.0135458
1098	0.0138063
1110	0.0173664
1122	0.0215343
1134	0.0334303
1146	0.0664265
1158	0.23132
1170	0.647854
1182	0.698042
1194	0.290887
1206	0.187036
1218	0.0595668
1230	0.0425477
1242	0.0544437
1254	0.0872662
1266	0.0425477
1278	0.0291756
1290	0.0210133
1302	0.0197109
1314	0.0233578
1326	0.022229
1338	0.0649503
1350	0.600964
1362	0.34863
1374	0.0484523
1386	0.0259628
1398	0.0204924
1410	0.0117223
1422	0.0117223
1434	0.0277862
1446	0.0231841
1458	0.0263969
1470	0.0403769
1482	0.0999436
1494	0.271524
1506	0.512396
1518	0.314592
1530	0.0365563
1542	0.0159771
1554	0.01398
1566	0.0116355
1578	0.011896
1590	0.0141536
1602	0.0120696
1614	0.0117223
1626	0.0154561
1638	0.0142404
1650	0.0158034
1662	0.0155429
1674	0.00920419
1686	0.00781488
1698	0.00790171
1710	0.00668606
1722	0.00729389
1734	0.00850954
1746	0.00798854
1758	0.0065124
1770	0.00729389
1782	0.00581774
1794	0.00599141
1806	0.00494942
1818	0.00442843
1830	0.00468893
1842	0.00529675
1854	0.00607824
1866	0.00564408
1878	0.00477576
1890	0.00503626
1902	0.00477576
1914	0.00486259
1926	0.00451526
1938	0.00399427
1950	0.00416794
1962	0.00390744
1974	0.00399427
1986	0.00451526
1998	0.00425477
2010	0.0043416
2022	0.00425477
2034	0.0040811
2046	0.00373378
2058	0.00399427
2070	0.00373378
2082	0.00399427
2094	0.00364694
2106	0.00442843
2118	0.00555725
2130	0.00512309
2142	0.00494942
2154	0.00451526
2166	0.00382061
2178	0.00321278
2190	0.00338645
2202	0.00356011
2214	0.00321278
2226	0.00364694
2238	0.00303912
2250	0.00269179
2262	0.00295229
2274	0.00303912
2286	0.00347328
2298	0.0043416
2310	0.00547042
2322	0.00607824
2334	0.00607824
2346	0.00590458
2358	0.00547042
2370	0.00573091
2382	0.00390744
2394	0.00312595
2406	0.00468893
2418	0.00547042
2430	0.00382061
2442	0.00260496
2454	0.00286546
2466	0.00329962
2478	0.00303912
2490	0.00321278
2502	0.00303912
2514	0.00277862
2526	0.0021708
2538	0.00147614
2550	0.00147614
2562	0.00182347
2574	0.00182347
2586	0.00156298
2598	0.00164981
2610	0.00182347
2622	0.00182347
2634	0.00225763
2646	0.0024313
2658	0.00277862
2670	0.00164981
2682	0.00104198
2694	0.000607824
2706	0.000347328
2718	0.000607824
2730	0.00112882
2742	0.000955152
2754	0.00112882
2766	0.00199714
2778	0.00121565
2790	0.00121565
2802	0.00112882
2814	0.000694656
2826	0.00121565
2838	0.00138931
2850	0.00147614
2862	0.00138931
2874	0.000781488
2886	0.00112882
2898	0.00138931
2910	0.0021708
2922	0.00251813
2934	0.00199714
2946	0.00156298
2958	0.00112882
2970	0.000607824
2982	0.000607824
2994	0.000520992
3006	0.00086832
3018	0.000607824
3030	0.00086832
3042	0.00104198
3054	0.00086832
3066	0.00121565
3078	0.00086832
3090	0.0019103
3102	0.0019103
3114	0.00199714
3126	0.00086832
3138	0.00130248
3150	0.000781488
3162	0.00138931
3174	0.00086832
3186	0.00164981
3198	0.00147614
3210	0.00112882
3222	0.00156298
3234	0.000955152
3246	0.00156298
3258	0.00138931
3270	0.00147614
3282	0.00147614
3294	0.0019103
3306	0.00182347
3318	0.00138931
3330	0.00173664
3342	0.00121565
3354	0.00199714
3366	0.00121565
3378	0.0021708
3390	0.00138931
3402	0.00112882
3414	0.00164981
3426	0.00086832
3438	0.0019103
3450	0.00138931
3462	0.00130248
3474	0.00138931
3486	0.00112882
3498	0.0019103
3510	0.00164981
3522	0.0019103
3534	0.00164981
3546	0.0021708
3558	0.00086832
3570	0.00338645
3582	0.00234446
3594	0.00121565
3606	0.00121565
3618	0.0021708
3630	0.0021708
3642	0.00130248
3654	0.0019103
3666	0.00147614
3678	0.00234446
3690	0.00269179
3702	0.00164981
3714	0.0021708
3726	0.00286546
3738	0.00321278
3750	0.00147614
3762	0.00356011
3774	0.0024313
3786	0.00382061
3798	0.00138931
3810	0.00364694
3822	0.00303912
3834	0.00086832
3846	0.00312595
3858	0.00416794
3870	0.0021708
3882	0.0019103
3894	0.00164981
3906	0.00442843
3918	0.000347328
3930	0.00277862
3942	0.00182347
3954	0.00295229
3966	0.0019103
