Infrared Spectrum: n-Amyl-4-hydroxybenzoate
Formula: C 12 H 16 O 3
CAS: 6521-29-5
Origin: Sadtler Research Labs Under US-EPA Contract
1/CM	ABSORBANCE
450	0.057266
462	0.0228497
474	0.0185406
486	0.022226
498	0.0321483
510	0.0238136
522	0.0114532
534	0.0196746
546	0.0217157
558	0.0185973
570	0.0175767
582	0.0137212
594	0.011113
606	0.0217157
618	0.0428077
630	0.0145149
642	0.0137779
654	0.0123037
666	0.0123037
678	0.0160458
690	0.0273856
702	0.021092
714	0.0109996
726	0.0178602
738	0.0238703
750	0.0226796
762	0.0355503
774	0.0506889
786	0.0185973
798	0.0147417
810	0.0207518
822	0.0240971
834	0.025061
846	0.0536373
858	0.0352668
870	0.0168396
882	0.0188808
894	0.0146283
906	0.00776776
918	0.0117934
930	0.0127573
942	0.00986563
954	0.0173499
966	0.0282928
978	0.0260248
990	0.019958
1002	0.0149685
1014	0.0342462
1026	0.0208652
1038	0.0208652
1050	0.0219992
1062	0.0282361
1074	0.0416171
1086	0.102682
1098	0.20973
1110	0.214833
1122	0.100301
1134	0.0494415
1146	0.0616885
1158	0.17622
1170	0.229631
1182	0.0930998
1194	0.153711
1206	0.043885
1218	0.0462097
1230	0.0570392
1242	0.0812497
1254	0.219709
1266	0.56699
1278	0.309747
1290	0.0847083
1302	0.0634462
1314	0.0543743
1326	0.0505188
1338	0.0279526
1350	0.0220559
1362	0.0215456
1374	0.0219992
1386	0.0311844
1398	0.021659
1410	0.0175767
1422	0.0246641
1434	0.0411068
1446	0.0282361
1458	0.0273856
1470	0.0317514
1482	0.0230198
1494	0.0179169
1506	0.0497817
1518	0.0511992
1530	0.0127573
1542	0.00788116
1554	0.0106594
1566	0.0164994
1578	0.0267619
1590	0.0574928
1602	0.103476
1614	0.113171
1626	0.0384419
1638	0.0150819
1650	0.00912854
1662	0.0107728
1674	0.0119068
1686	0.0149118
1698	0.0217157
1710	0.0375914
1722	0.0782446
1734	0.221523
1746	0.165561
1758	0.0345297
1770	0.0150819
1782	0.0100357
1794	0.00759767
1806	0.00521631
1818	0.00413903
1830	0.00391223
1842	0.00379883
1854	0.00334524
1866	0.00289165
1878	0.00368543
1890	0.00453592
1902	0.00459262
1914	0.00464932
1926	0.00334524
1938	0.00277825
1950	0.00232466
1962	0.00215456
1974	0.00232466
1986	0.00170097
1998	0.00192777
2010	0.00175767
2022	0.00215456
2034	0.00204116
2046	0.00187107
2058	0.00266485
2070	0.00300505
2082	0.00266485
2094	0.00209786
2106	0.00198446
2118	0.00209786
2130	0.00147417
2142	0.00102058
2154	0.000340194
2166	0.000453592
2178	0.000453592
2190	0.000396893
2202	0.00056699
2214	0.000737087
2226	0.000623689
2238	0.00107728
2250	0.00107728
2262	0.00141748
2274	0.00204116
2286	0.00323184
2298	0.00453592
2310	0.00646369
2322	0.00413903
2334	0.00442252
2346	0.00697398
2358	0.00396893
2370	0.00413903
2382	0.0054431
2394	0.00215456
2406	0.00238136
2418	0.00311845
2430	0.00379883
2442	0.00334524
2454	0.00379883
2466	0.00289165
2478	0.00249476
2490	0.00277825
2502	0.00249476
2514	0.00345864
2526	0.00340194
2538	0.00277825
2550	0.00266485
2562	0.00294835
2574	0.00300505
2586	0.00340194
2598	0.00379883
2610	0.00362874
2622	0.00345864
2634	0.00362874
2646	0.00396893
2658	0.00425242
2670	0.00408233
2682	0.00459262
2694	0.00459262
2706	0.00447922
2718	0.00408233
2730	0.00402563
2742	0.00527301
2754	0.00538641
2766	0.0055565
2778	0.00601009
2790	0.00646369
2802	0.00646369
2814	0.00748427
2826	0.00907184
2838	0.0112264
2850	0.0173499
2862	0.0301639
2874	0.0424676
2886	0.0426376
2898	0.0382151
2910	0.0446788
2922	0.0607813
2934	0.0879968
2946	0.098146
2958	0.0905483
2970	0.107161
2982	0.0573794
2994	0.0281227
3006	0.0189375
3018	0.0159324
3030	0.0141181
3042	0.0172932
3054	0.0113965
3066	0.00986563
3078	0.0136645
3090	0.00941203
3102	0.00674718
3114	0.00680388
3126	0.0058967
3138	0.00498951
3150	0.00504621
3162	0.00481941
3174	0.0059534
3186	0.00504621
3198	0.00515961
3210	0.00459262
3222	0.00436582
3234	0.00510291
3246	0.00464932
3258	0.00515961
3270	0.00515961
3282	0.00487611
3294	0.00538641
3306	0.0056132
3318	0.00538641
3330	0.00629359
3342	0.00532971
3354	0.00635029
3366	0.00521631
3378	0.0057833
3390	0.00584
3402	0.00532971
3414	0.0056699
3426	0.0057833
3438	0.0054998
3450	0.00635029
3462	0.0057266
3474	0.00487611
3486	0.00294835
3498	0.00368543
3510	0.00317514
3522	0.00413903
3534	0.00357204
3546	0.00232466
3558	0.00311845
3570	0.00215456
3582	0.00436582
3594	0.00374213
3606	0.00249476
3618	0.00311845
3630	0.00754097
3642	0.0568691
3654	0.0747293
3666	0.0115666
3678	0.00249476
3690	0.00141748
3702	0.00408233
3714	0.00147417
3726	0.00498951
3738	0.000963883
3750	0
3762	0.00260815
3774	0.00362874
3786	0.00243806
3798	0.00391223
3810	0.0059534
3822	0.000907184
3834	0.00243806
3846	0.00538641
3858	0.00107728
3870	0.00425242
3882	0.00532971
3894	0.00232466
3906	0.00300505
3918	0.00447922
3930	0.00601009
3942	0.00447922
3954	0.00209786
3966	0.00419573
