Infrared Spectrum: 2-(Pentafluorophenyl)ethanol
Formula: C 8 H 5 F 5 O
CAS: 653-31-6
Origin: Sadtler Research Labs Under US-EPA Contract
1/CM	ABSORBANCE
450	0.0116048
462	0.023825
474	0.0231216
486	0.0101102
498	0.0213633
510	0.00887941
522	0.0174951
534	0.0111652
546	0.00923108
558	0.0168797
570	0.0111652
582	0.0161764
594	0.0148576
606	0.0158247
618	0.0193413
630	0.0124839
642	0.0130114
654	0.0158247
666	0.0210117
678	0.0136268
690	0.0139785
702	0.00676945
714	0.0130114
726	0.0112531
738	0.00975857
750	0.00632988
762	0.0105498
774	0.0107256
786	0.0116048
798	0.0133631
810	0.0110773
822	0.0149456
834	0.0126598
846	0.0162643
858	0.0345506
870	0.0305065
882	0.0367485
894	0.0637384
906	0.0297153
918	0.02066
930	0.0255833
942	0.0482653
954	0.210996
966	0.259701
978	0.0974977
990	0.11385
1002	0.120619
1014	0.0786839
1026	0.0817609
1038	0.158511
1050	0.245107
1062	0.235261
1074	0.193237
1086	0.0830797
1098	0.0529248
1110	0.0642659
1122	0.178731
1134	0.145236
1146	0.0425509
1158	0.0321769
1170	0.0345506
1182	0.0354297
1194	0.0349902
1206	0.0254074
1218	0.0249679
1230	0.0234733
1242	0.0229458
1254	0.0225062
1266	0.0235612
1278	0.0261108
1290	0.0303307
1302	0.0469466
1314	0.0378035
1326	0.0308582
1338	0.028924
1350	0.0411442
1362	0.0290999
1374	0.0315615
1386	0.0453641
1398	0.0288361
1410	0.0245283
1422	0.0272537
1434	0.0281328
1446	0.0246162
1458	0.0176709
1470	0.0329681
1482	0.0779806
1494	0.301285
1506	0.87915
1518	0.617075
1530	0.34999
1542	0.0338473
1554	0.0302428
1566	0.0216271
1578	0.0170555
1590	0.0160005
1602	0.0138027
1614	0.0131872
1626	0.012396
1638	0.0160884
1650	0.0356056
1662	0.0366606
1674	0.00430784
1686	0.00149456
1698	0.00017583
1710	0.00501115
1722	0.00826401
1734	0.00439575
1746	0.00632988
1758	0.00650571
1770	0.00501115
1782	0.00457158
1794	0.0035166
1806	0.00395618
1818	0.00518698
1830	0.00087915
1842	0.00342868
1854	0.00395618
1866	0.00369243
1878	0.00316494
1890	0.0035166
1902	0.0029012
1914	0.00360451
1926	0.0052749
1938	0.00421992
1950	0.0023737
1962	0.00378035
1974	0.00272536
1986	0.00281328
1998	0.00334077
2010	0.00378035
2022	0.00386826
2034	0.00307703
2046	0.00395618
2058	0.00509907
2070	0.00624197
2082	0.00632988
2094	0.0052749
2106	0.00483532
2118	0.00421992
2130	0.00334077
2142	0.00246162
2154	0.0023737
2166	0.00334077
2178	0.0023737
2190	0.00307703
2202	0.00193413
2214	0.00210996
2226	0.00246162
2238	0.00254953
2250	0.00219788
2262	0.00210996
2274	0.00123081
2286	0.00246162
2298	0.0035166
2310	0.0046595
2322	0.00281328
2334	0.00307703
2346	0.00369243
2358	0.00509907
2370	0.00615405
2382	0.00571448
2394	0.0052749
2406	0.00597822
2418	0.00624197
2430	0.00606614
2442	0.0064178
2454	0.0052749
2466	0.00448367
2478	0.00457158
2490	0.00386826
2502	0.00281328
2514	0.00316494
2526	0.00272536
2538	0.00246162
2550	0.0023737
2562	0.00263745
2574	0.00298911
2586	0.0029012
2598	0.00378035
2610	0.00395618
2622	0.00430784
2634	0.00729694
2646	0.00852775
2658	0.00694528
2670	0.0052749
2682	0.00404409
2694	0.00395618
2706	0.00448367
2718	0.00457158
2730	0.00492324
2742	0.00536281
2754	0.00553865
2766	0.00571448
2778	0.00624197
2790	0.00676945
2802	0.00676945
2814	0.00685737
2826	0.00747278
2838	0.0099344
2850	0.0123081
2862	0.014506
2874	0.0192534
2886	0.0400013
2898	0.0591668
2910	0.0343748
2922	0.0321769
2934	0.0407046
2946	0.050639
2958	0.0468587
2970	0.038243
2982	0.033056
2994	0.0203084
3006	0.00984648
3018	0.00632988
3030	0.00536281
3042	0.00439575
3054	0.00404409
3066	0.00378035
3078	0.00386826
3090	0.00378035
3102	0.00404409
3114	0.00421992
3126	0.0029012
3138	0.00386826
3150	0.00421992
3162	0.00395618
3174	0.00342868
3186	0.00439575
3198	0.0035166
3210	0.0029012
3222	0.00334077
3234	0.00272536
3246	0.0035166
3258	0.0035166
3270	0.00342868
3282	0.00325286
3294	0.00272536
3306	0.00298911
3318	0.00272536
3330	0.00298911
3342	0.00334077
3354	0.0029012
3366	0.00395618
3378	0.00228579
3390	0.00325286
3402	0.00307703
3414	0.0035166
3426	0.00395618
3438	0.00395618
3450	0.00325286
3462	0.00334077
3474	0.00360451
3486	0.00281328
3498	0.00413201
3510	0.00316494
3522	0.00202205
3534	0.00386826
3546	0.00272536
3558	0.00369243
3570	0.00404409
3582	0.00386826
3594	0.00404409
3606	0.00378035
3618	0.00580239
3630	0.00536281
3642	0.00826401
3654	0.0223304
3666	0.037276
3678	0.0349902
3690	0.0126598
3702	0.00413201
3714	0.00553865
3726	0.00342868
3738	0.00457158
3750	0.00246162
3762	0.00325286
3774	0.00413201
3786	0.00342868
3798	0.00167038
3810	0.00105498
3822	0.00334077
3834	0.00571448
3846	0.00298911
3858	0.00228579
3870	0.0064178
3882	0.00421992
3894	0.00457158
3906	0.0035166
3918	0.00483532
3930	0.00545073
3942	0.00650571
3954	0.00307703
3966	0.0046595
