Infrared Spectrum: 2-Cyclohexylcyclohexanol
Formula: C 12 H 22 O
CAS: 6531-86-8
Origin: Sadtler Research Labs Under US-EPA Contract
1/CM	ABSORBANCE
450	0.00702689
462	0.00718905
474	0.00794579
486	0.0134592
498	0.0154051
510	0.013297
522	0.00972954
534	0.00821606
546	0.00983765
558	0.00962143
570	0.00254049
582	0.00583772
594	0.00497288
606	0.000918901
618	0.00216212
630	0.00383776
642	0.0018378
654	0.00329723
666	0.00178375
678	0.00340534
690	0.00302697
702	0.00248644
714	0.00108106
726	0.00194591
738	0.00232428
750	0.00302697
762	0.00156754
774	0.00199996
786	0.00194591
798	0.00178375
810	0.00286481
822	0.00421613
834	0.00654041
846	0.0134592
858	0.0167024
870	0.01627
882	0.0187023
894	0.0171348
906	0.0143781
918	0.0110809
930	0.0110268
942	0.0104863
954	0.0138916
966	0.025513
978	0.0288102
990	0.0189185
1002	0.0135132
1014	0.0137295
1026	0.0198915
1038	0.0316751
1050	0.0473504
1062	0.038756
1074	0.0225942
1086	0.0248103
1098	0.0195131
1110	0.0157294
1122	0.015297
1134	0.0141619
1146	0.0150808
1158	0.0136754
1170	0.0143781
1182	0.0152429
1194	0.0166483
1206	0.0167564
1218	0.0168105
1230	0.0187564
1242	0.0168645
1254	0.0201077
1266	0.0270806
1278	0.0243239
1290	0.020432
1302	0.0174591
1314	0.0149727
1326	0.0106484
1338	0.0113511
1350	0.014324
1362	0.012216
1374	0.0141078
1386	0.0114592
1398	0.00848632
1410	0.0054053
1422	0.00486477
1434	0.00843227
1446	0.0337831
1458	0.0441072
1470	0.0162159
1482	0.00443235
1494	0.00291886
1506	0.00351345
1518	0.00156754
1530	0.00151348
1542	0.00248644
1554	0.00167564
1566	0.00162159
1578	0.00167564
1590	0.00113511
1602	0.00221617
1614	0.00167564
1626	0.0017297
1638	0.00178375
1650	0.000648636
1662	0.000810795
1674	0.00145943
1686	0.00221617
1698	0.00270265
1710	0.00167564
1722	0.00259454
1734	0.00291886
1746	0.00259454
1758	0.00156754
1770	0.00259454
1782	0.00199996
1794	0.00205401
1806	0.00145943
1818	0.00145943
1830	0.00140538
1842	0.00140538
1854	0.00145943
1866	0.00140538
1878	0.00135133
1890	0.00135133
1902	0.00129727
1914	0.00135133
1926	0.00124322
1938	0.00124322
1950	0.000756742
1962	0.00124322
1974	0.00124322
1986	0.00118917
1998	0.000702689
2010	0.000702689
2022	0.000648636
2034	0.000648636
2046	0.000918901
2058	0.000378371
2070	0.000648636
2082	0.00054053
2094	0.00054053
2106	0.000486477
2118	0.000486477
2130	0.000486477
2142	0.000864848
2154	0.000972954
2166	0.000702689
2178	0.000432424
2190	0.000810795
2202	0.000702689
2214	0.000486477
2226	0.000810795
2238	0.000864848
2250	0.000864848
2262	0.000972954
2274	0.000972954
2286	0.000972954
2298	0.00156754
2310	0.00259454
2322	0.00410803
2334	0.00562151
2346	0.0045945
2358	0.00767553
2370	0.00643231
2382	0.00281076
2394	0.0018378
2406	0.00243239
2418	0.00243239
2430	0.00227023
2442	0.00199996
2454	0.00156754
2466	0.00162159
2478	0.00216212
2490	0.0027567
2502	0.00221617
2514	0.0027567
2526	0.00232428
2538	0.00286481
2550	0.00291886
2562	0.00291886
2574	0.00345939
2586	0.00351345
2598	0.00416208
2610	0.00454045
2622	0.00508098
2634	0.00524314
2646	0.00562151
2658	0.00708094
2670	0.00913496
2682	0.00821606
2694	0.00621609
2706	0.00583772
2718	0.0054053
2730	0.00497288
2742	0.00497288
2754	0.00562151
2766	0.00589178
2778	0.00756742
2790	0.00962143
2802	0.0106484
2814	0.0117836
2826	0.0149186
2838	0.0238374
2850	0.073404
2862	0.20005
2874	0.139835
2886	0.0651339
2898	0.0700527
2910	0.123025
2922	0.253292
2934	0.517017
2946	0.385668
2958	0.100214
2970	0.0306481
2982	0.0139997
2994	0.00843227
3006	0.00686473
3018	0.00697284
3030	0.00594583
3042	0.00410803
3054	0.0036756
3066	0.00427019
3078	0.00372966
3090	0.00378371
3102	0.00383776
3114	0.00383776
3126	0.00351345
3138	0.00329723
3150	0.00351345
3162	0.00345939
3174	0.0035675
3186	0.00248644
3198	0.00297292
3210	0.00227023
3222	0.00227023
3234	0.00232428
3246	0.00259454
3258	0.00237833
3270	0.00189186
3282	0.00232428
3294	0.00129727
3306	0.00108106
3318	0.00113511
3330	0.00118917
3342	0.00113511
3354	0.000918901
3366	0.00145943
3378	0.00178375
3390	0.00135133
3402	0.00140538
3414	0.00102701
3426	0.0018378
3438	0.00199996
3450	0.00178375
3462	0.00145943
3474	0.00156754
3486	0.00216212
3498	0.00167564
3510	0.00156754
3522	0.00232428
3534	0.0018378
3546	0.00232428
3558	0.00194591
3570	0.0027567
3582	0.00243239
3594	0.00297292
3606	0.00351345
3618	0.0044864
3630	0.00589178
3642	0.0102701
3654	0.0149186
3666	0.0098917
3678	0.00648636
3690	0.00686473
3702	0.00627015
3714	0.00675662
3726	0.00740526
3738	0.00827011
3750	0.00837821
3762	0.00848632
3774	0.00886469
3786	0.00854037
3798	0.00951333
3810	0.00967549
3822	0.010162
3834	0.0103241
3846	0.0100539
3858	0.00983765
3870	0.0102701
3882	0.00978359
3894	0.00886469
3906	0.0098917
3918	0.00945927
3930	0.00956738
3942	0.00870253
3954	0.00156754
3966	0.00232428
