Infrared Spectrum: 5-Decanone, 6-hydroxy-
Formula: C 10 H 20 O 2
CAS: 6540-98-3
Origin: Sadtler Research Labs Under US-EPA Contract
1/CM	ABSORBANCE
450	0.0188921
462	0.00844767
474	0.00606696
486	0.00191993
498	0.00307188
510	0.00276469
522	0.00161274
534	0.0024575
546	0.00468462
558	0.00691173
570	0.00322547
582	0.00445423
594	0.00629735
606	0.0051454
618	0.00529899
630	0.00422384
642	0.0024575
654	0.00230391
666	0.00422384
678	0.00383985
690	0.00552938
702	0.00668134
714	0.00883166
726	0.0146682
738	0.019276
750	0.0225015
762	0.0194296
774	0.0148986
786	0.0122107
798	0.00629735
810	0.0025343
822	0.00207352
834	0.00230391
846	0.00153594
858	0.0025343
870	0.00614376
882	0.00967642
894	0.00944603
906	0.011366
918	0.0122107
930	0.0128251
942	0.0141306
954	0.0198136
966	0.0274165
978	0.0366322
990	0.0512236
1002	0.0523756
1014	0.0632039
1026	0.0733411
1038	0.154823
1050	0.182239
1062	0.133396
1074	0.118805
1086	0.13332
1098	0.114197
1110	0.103215
1122	0.160659
1134	0.13186
1146	0.0843231
1158	0.067735
1170	0.0466158
1182	0.0342515
1194	0.0357874
1206	0.0415472
1218	0.0476909
1230	0.0652775
1242	0.0831712
1254	0.0903133
1266	0.116424
1278	0.0852447
1290	0.0648935
1302	0.0645863
1314	0.0680421
1326	0.0750307
1338	0.0937691
1350	0.116578
1362	0.114658
1374	0.0923868
1386	0.119419
1398	0.119419
1410	0.103599
1422	0.0729571
1434	0.061284
1446	0.0720356
1458	0.100374
1470	0.105749
1482	0.046923
1494	0.0182009
1506	0.0112892
1518	0.00714212
1530	0.00499181
1542	0.00460782
1554	0.0025343
1566	0.00130555
1578	0.00222711
1590	0.00130555
1602	0.00115196
1614	0.0025343
1626	0.00460782
1638	0.00445423
1650	0.00729572
1662	0.00821728
1674	0.0180473
1686	0.0281077
1698	0.0496109
1710	0.192607
1722	0.501331
1734	0.224478
1746	0.057521
1758	0.0340211
1770	0.0335603
1782	0.0323315
1794	0.0227319
1806	0.0104444
1818	0.00437743
1830	0.0026879
1842	0.00138235
1854	0.000230391
1866	0.000921564
1878	0.000383985
1890	0.000383985
1902	0.000307188
1914	0.000153594
1926	0.000307188
1938	0.000614376
1950	0.000230391
1962	0.000537579
1974	0.000307188
1986	0.000614376
1998	0.000844767
2010	0.000921564
2022	0.00115196
2034	0.00138235
2046	0.00153594
2058	0.00130555
2070	0.00130555
2082	0.00107516
2094	0.00107516
2106	0.00138235
2118	0.00138235
2130	0.00153594
2142	0.00145914
2154	0.000921564
2166	0.00130555
2178	0.00122875
2190	0.00145914
2202	0.00138235
2214	0.00145914
2226	0.00130555
2238	0.000998361
2250	0.000844767
2262	0.000614376
2274	0.000921564
2286	0.00115196
2298	0.00168953
2310	0.00168953
2322	0.00168953
2334	0.00130555
2346	0.00199672
2358	0.00238071
2370	0.00153594
2382	0.00291829
2394	0.00314868
2406	0.00291829
2418	0.00307188
2430	0.00230391
2442	0.00184313
2454	0.00168953
2466	0.00161274
2478	0.00138235
2490	0.00153594
2502	0.00184313
2514	0.00145914
2526	0.00207352
2538	0.00238071
2550	0.00230391
2562	0.0026879
2574	0.00330227
2586	0.00337907
2598	0.00368626
2610	0.00391665
2622	0.00414704
2634	0.00499181
2646	0.00545259
2658	0.00652775
2670	0.00737251
2682	0.00844767
2694	0.00829408
2706	0.00806369
2718	0.00852447
2730	0.0103676
2742	0.0137467
2754	0.0152826
2766	0.0158202
2778	0.0181241
2790	0.0231927
2802	0.0285685
2814	0.0354034
2826	0.0456942
2838	0.0646631
2850	0.104751
2862	0.196831
2874	0.319783
2886	0.33207
2898	0.232311
2910	0.264719
2922	0.37093
2934	0.525215
2946	0.642407
2958	0.547793
2970	0.76797
2982	0.354495
2994	0.115887
3006	0.0628967
3018	0.0417776
3030	0.030642
3042	0.0236535
3054	0.0175097
3066	0.0138235
3078	0.0124411
3090	0.0110588
3102	0.00967642
3114	0.00814048
3126	0.0077565
3138	0.00698853
3150	0.00683493
3162	0.00683493
3174	0.00660454
3186	0.00698853
3198	0.00645095
3210	0.0052222
3222	0.00391665
3234	0.00337907
3246	0.0026879
3258	0.00238071
3270	0.00199672
3282	0.00153594
3294	0.00199672
3306	0.00161274
3318	0.00138235
3330	0.00191993
3342	0.00145914
3354	0.00191993
3366	0.00199672
3378	0.0026879
3390	0.00284149
3402	0.00383985
3414	0.00683493
3426	0.00883166
3438	0.00652775
3450	0.00560618
3462	0.00698853
3474	0.00998361
3486	0.0175865
3498	0.0391665
3510	0.109897
3522	0.144302
3534	0.0794081
3546	0.0456942
3558	0.0296436
3570	0.0233463
3582	0.0184313
3594	0.00875486
3606	0.00483821
3618	0.00353266
3630	0.00399344
3642	0.00476141
3654	0.00867806
3666	0.00660454
3678	0.00238071
3690	0.000691173
3702	0.00107516
3714	0.000153594
3726	0.00076797
3738	0.000153594
3750	0
3762	0.000153594
3774	0.000998361
3786	0.000460782
3798	0.000307188
3810	0.000537579
3822	0.000614376
3834	0.00191993
3846	0.000844767
3858	0.00176633
3870	0.00191993
3882	0.00138235
3894	0.00161274
3906	0.00191993
3918	0.00122875
3930	0.000383985
3942	0.000921564
3954	0.00153594
3966	0.000537579
