Infrared Spectrum: Benzoic acid, 2-(methylamino)-, 2-methylpropyl ester
Formula: C 12 H 17 N O 2
CAS: 65505-24-0
Origin: Sadtler Research Labs Under US-EPA Contract
1/CM	ABSORBANCE
450	0
462	0.0312373
474	0.0467819
486	0.0387875
498	0.0464858
510	0.0522595
522	0.0626226
534	0.0541841
546	0.0407121
558	0.047078
570	0.0435249
582	0.060698
594	0.0519634
606	0.0494467
618	0.0461897
630	0.0466339
642	0.0451534
654	0.0546282
666	0.0663237
678	0.0553685
690	0.0614383
702	0.121988
714	0.0763907
726	0.0630667
738	0.151745
750	0.267071
762	0.0845331
774	0.0476702
786	0.0497428
798	0.0494467
810	0.0476702
822	0.05374
834	0.0494467
846	0.0524076
858	0.0519634
870	0.0451534
882	0.0380473
894	0.0410082
906	0.0451534
918	0.0500389
930	0.0513713
942	0.0535919
954	0.0568489
966	0.070765
978	0.0948962
990	0.100966
1002	0.0543321
1014	0.0553685
1026	0.0666198
1038	0.105851
1050	0.148636
1062	0.294015
1074	0.196899
1086	0.448869
1098	0.304082
1110	0.199267
1122	0.473593
1134	0.488545
1146	0.217773
1158	0.344794
1170	0.467671
1182	0.191569
1194	0.132203
1206	0.176468
1218	0.334283
1230	0.741256
1242	1.48044
1254	0.886487
1266	0.732818
1278	0.290166
1290	0.162404
1302	0.159739
1314	0.265887
1326	0.295644
1338	0.162256
1350	0.102002
1362	0.0818683
1374	0.148044
1386	0.137977
1398	0.087494
1410	0.0771309
1422	0.10215
1434	0.208002
1446	0.146416
1458	0.149524
1470	0.220586
1482	0.175432
1494	0.13546
1506	0.155742
1518	0.418965
1530	0.400459
1542	0.107036
1554	0.0719494
1566	0.101262
1578	0.29594
1590	0.523484
1602	0.322144
1614	0.279211
1626	0.114882
1638	0.0867538
1650	0.0790555
1662	0.0867538
1674	0.11577
1686	0.351308
1698	0.923202
1710	0.447241
1722	0.170695
1734	0.144047
1746	0.0778711
1758	0.0615863
1770	0.050631
1782	0.0488545
1794	0.0439691
1806	0.0413043
1818	0.0386395
1830	0.0355306
1842	0.0339021
1854	0.0365669
1866	0.0352345
1878	0.0358266
1890	0.0386395
1902	0.0410082
1914	0.0466339
1926	0.0411562
1938	0.0405641
1950	0.0352345
1962	0.0343462
1974	0.0353825
1986	0.0352345
1998	0.0349384
2010	0.0350864
2022	0.0347903
2034	0.0358266
2046	0.0361227
2058	0.0356786
2070	0.0364188
2082	0.0358266
2094	0.0353825
2106	0.0359747
2118	0.0362708
2130	0.0349384
2142	0.0347903
2154	0.0343462
2166	0.0339021
2178	0.0347903
2190	0.0341982
2202	0.0333099
2214	0.0341982
2226	0.0340501
2238	0.033754
2250	0.0340501
2262	0.0339021
2274	0.0333099
2286	0.0341982
2298	0.0346423
2310	0.0340501
2322	0.0334579
2334	0.0325697
2346	0.0350864
2358	0.0340501
2370	0.0350864
2382	0.0349384
2394	0.0340501
2406	0.0339021
2418	0.0334579
2430	0.0333099
2442	0.0321255
2454	0.0315334
2466	0.0319775
2478	0.0331619
2490	0.0341982
2502	0.0333099
2514	0.0325697
2526	0.0325697
2538	0.0322736
2550	0.0331619
2562	0.0346423
2574	0.0353825
2586	0.0361227
2598	0.0353825
2610	0.0353825
2622	0.0358266
2634	0.0380473
2646	0.0389356
2658	0.0376032
2670	0.0373071
2682	0.037011
2694	0.0364188
2706	0.0374551
2718	0.0376032
2730	0.040268
2742	0.0430808
2754	0.0439691
2766	0.0429328
2778	0.043821
2790	0.0479663
2802	0.0528517
2814	0.0691365
2826	0.125689
2838	0.119323
2850	0.0723935
2862	0.0797957
2874	0.132055
2886	0.217033
2898	0.205781
2910	0.23391
2922	0.233465
2934	0.226507
2946	0.277286
2958	0.296236
2970	0.39661
2982	0.34213
2994	0.152041
3006	0.0820164
3018	0.0666198
3030	0.0747622
3042	0.0713572
3054	0.0691365
3066	0.0651394
3078	0.0849773
3090	0.113402
3102	0.080684
3114	0.0567009
3126	0.043673
3138	0.040268
3150	0.0389356
3162	0.0383434
3174	0.0393797
3186	0.0395277
3198	0.0407121
3210	0.0396758
3222	0.0389356
3234	0.037011
3246	0.0358266
3258	0.0355306
3270	0.0374551
3282	0.0424886
3294	0.0423406
3306	0.0416004
3318	0.0426367
3330	0.0453015
3342	0.0516674
3354	0.0664718
3366	0.107628
3378	0.208594
3390	0.266035
3402	0.180318
3414	0.0968208
3426	0.0629187
3438	0.0509271
3450	0.0487065
3462	0.0652874
3474	0.0598098
3486	0.0407121
3498	0.0362708
3510	0.0364188
3522	0.0364188
3534	0.0353825
3546	0.0364188
3558	0.0353825
3570	0.0374551
3582	0.0331619
3594	0.0359747
3606	0.0333099
3618	0.0352345
3630	0.0377512
3642	0.0346423
3654	0.0386395
3666	0.0344943
3678	0.0328658
3690	0.0377512
3702	0.0359747
3714	0.0362708
3726	0.0374551
3738	0.0356786
3750	0.0413043
3762	0.033606
3774	0.0365669
3786	0.0365669
3798	0.0381954
3810	0.0340501
3822	0.037159
3834	0.0356786
3846	0.037159
3858	0.0390836
3870	0.0381954
3882	0.037159
3894	0.0346423
3906	0.0376032
3918	0.0349384
3930	0.0339021
3942	0.0383434
3954	0.0384914
3966	0.0359747
