Infrared Spectrum: Cyclohexanecarboxylic acid isopropyl ester
Formula: C 10 H 18 O 2
CAS: 6553-80-6
Origin: Sadtler Research Labs Under US-EPA Contract
1/CM	ABSORBANCE
450	0.0349512
462	0.0112847
474	0.0178674
486	0.0034481
498	0.0153597
510	0.017554
522	0.00501542
534	0.00924719
546	0.0144193
558	0.0150463
570	0.00407503
582	0.00376157
594	0.00673948
606	0.0114414
618	0.0186511
630	0.0164569
642	0.0119116
654	0.0125386
666	0.0156732
678	0.0115982
690	0.0173973
702	0.0117549
714	0.0172405
726	0.0126953
738	0.0217857
750	0.0269579
762	0.0283685
774	0.0178674
786	0.0202184
798	0.0206886
810	0.0200617
822	0.0421609
834	0.0639467
846	0.0441984
858	0.0203752
870	0.0307195
882	0.0463927
894	0.0647303
906	0.0796199
918	0.0404369
930	0.0468629
942	0.0890238
954	0.123818
966	0.045609
978	0.0246069
990	0.0311897
1002	0.0706861
1014	0.166136
1026	0.197326
1038	0.259391
1050	0.0789929
1062	0.0525052
1074	0.0647303
1086	0.11222
1098	0.25516
1110	0.75247
1122	0.774726
1134	0.645109
1146	0.50405
1158	0.378665
1170	0.813596
1182	0.789302
1194	0.675045
1206	0.372709
1218	0.307195
1230	0.358603
1242	0.468472
1254	0.522858
1266	0.223186
1278	0.198266
1290	0.139805
1302	0.217544
1314	0.302336
1326	0.222873
1338	0.144507
1350	0.0940392
1362	0.118019
1374	0.27287
1386	0.291522
1398	0.116452
1410	0.0537591
1422	0.0471763
1434	0.059088
1446	0.144664
1458	0.247166
1470	0.148582
1482	0.0725669
1494	0.0275848
1506	0.0159867
1518	0.011128
1530	0.00893372
1542	0.00626928
1554	0.00893372
1566	0.00971738
1578	0.00940392
1590	0.00971738
1602	0.00940392
1614	0.0109712
1626	0.0123818
1638	0.0125386
1650	0.0122251
1662	0.0180242
1674	0.0177107
1686	0.0242935
1698	0.0409071
1710	0.0666111
1722	0.172875
1734	0.659372
1746	1.19712
1758	0.556869
1770	0.138081
1782	0.0717833
1794	0.0388695
1806	0.0219425
1818	0.0145761
1830	0.011128
1842	0.0109712
1854	0.0100308
1866	0.00720967
1878	0.00564235
1890	0.00501542
1902	0.00564235
1914	0.0043885
1926	0.00470196
1938	0.00532889
1950	0.00564235
1962	0.00611255
1974	0.00564235
1986	0.00517216
1998	0.00579908
2010	0.00579908
2022	0.00548562
2034	0.00548562
2046	0.00485869
2058	0.00423176
2070	0.00532889
2082	0.00532889
2094	0.0043885
2106	0.00297791
2118	0.00266444
2130	0.00235098
2142	0.00235098
2154	0.00297791
2166	0.00250771
2178	0.00235098
2190	0.00250771
2202	0.0034481
2214	0.0034481
2226	0.0034481
2238	0.0039183
2250	0.00407503
2262	0.00407503
2274	0.00470196
2286	0.0043885
2298	0.00360484
2310	0.00329137
2322	0.00423176
2334	0.00423176
2346	0.00329137
2358	0.0039183
2370	0.00376157
2382	0.00360484
2394	0.00266444
2406	0.00219425
2418	0.00172405
2430	0.00141059
2442	0.000470196
2454	0.000470196
2466	0.000626928
2478	0.00172405
2490	0.00329137
2502	0.00219425
2514	0.00219425
2526	0.00250771
2538	0.00219425
2550	0.00141059
2562	0.00156732
2574	0.00203752
2586	0.00360484
2598	0.00454523
2610	0.0039183
2622	0.00501542
2634	0.00595582
2646	0.00846353
2658	0.0125386
2670	0.0178674
2682	0.0148895
2694	0.0115982
2706	0.00971738
2718	0.0078366
2730	0.00720967
2742	0.00971738
2754	0.00893372
2766	0.00971738
2778	0.0122251
2790	0.0169271
2802	0.0211588
2814	0.0217857
2826	0.0271146
2838	0.0410638
2850	0.118646
2862	0.437439
2874	0.412519
2886	0.21676
2898	0.1909
2910	0.291365
2922	0.531321
2934	1.14085
2946	1.52673
2958	0.625831
2970	0.274124
2982	0.502953
2994	0.398569
3006	0.11269
3018	0.0382426
3030	0.0230396
3042	0.0172405
3054	0.0120684
3066	0.00893372
3078	0.00752314
3090	0.00815006
3102	0.0083068
3114	0.00720967
3126	0.00626928
3138	0.00673948
3150	0.00799333
3162	0.00877699
3174	0.00924719
3186	0.0083068
3198	0.00705294
3210	0.00642601
3222	0.00611255
3234	0.0039183
3246	0.00423176
3258	0.00172405
3270	0.00219425
3282	0.00235098
3294	0.00235098
3306	0.00250771
3318	0.00235098
3330	0.00203752
3342	0.00313464
3354	0.00282118
3366	0.00329137
3378	0.00329137
3390	0.00360484
3402	0.00329137
3414	0.00313464
3426	0.00376157
3438	0.00485869
3450	0.00862026
3462	0.0119116
3474	0.012852
3486	0.0073664
3498	0.00235098
3510	0.00235098
3522	0.00156732
3534	0.00219425
3546	0.00329137
3558	0.0039183
3570	0.0122251
3582	0.0115982
3594	0.00329137
3606	0.00266444
3618	0.00172405
3630	0.0043885
3642	0.00172405
3654	0.00360484
3666	0.00235098
3678	0.000470196
3690	0.00172405
3702	0.00235098
3714	0.00250771
3726	0.00250771
3738	0.00219425
3750	0.00297791
3762	0.0043885
3774	0.00266444
3786	0.00235098
3798	0.00297791
3810	0.00250771
3822	0.00297791
3834	0
3846	0.00313464
3858	0.00235098
3870	0.00454523
3882	0.00329137
3894	0.00172405
3906	0.00313464
3918	0.00454523
3930	0.000940392
3942	0.00219425
3954	0.00172405
3966	0.00470196
