Infrared Spectrum: 2-Chloro-6-methoxybenzonitrile
Formula: C 8 H 6 Cl N O
CAS: 6575-10-6
Origin: Sadtler Research Labs Under US-EPA Contract
1/CM	ABSORBANCE
450	0.0592077
462	0.00943012
474	0.0148861
486	0.0266738
498	0.013741
510	0.00767881
522	0.0115182
534	0.00713995
546	0.00666844
558	0.0127307
570	0.00949748
582	0.0167721
594	0.0115856
606	0.00572543
618	0.0121244
630	0.00963219
642	0.0210831
654	0.0110467
666	0.0075441
678	0.00990163
690	0.0105752
702	0.00922805
714	0.0418293
726	0.134649
738	0.103395
750	0.00848711
762	0.0406169
774	0.153644
786	0.173784
798	0.0732181
810	0.0307152
822	0.0212178
834	0.0138084
846	0.0231712
858	0.107908
870	0.190825
882	0.070187
894	0.025394
906	0.0148188
918	0.0138084
930	0.0125286
942	0.0100363
954	0.0160986
966	0.022767
978	0.0239121
990	0.0342179
1002	0.0630471
1014	0.141654
1026	0.244712
1038	0.338002
1050	0.574833
1062	0.427252
1074	0.0950421
1086	0.0387982
1098	0.0242489
1110	0.0198033
1122	0.0131348
1134	0.0140778
1146	0.0222955
1158	0.0328033
1170	0.0299743
1182	0.0487672
1194	0.0484304
1206	0.0403474
1218	0.0210831
1230	0.030109
1242	0.0631144
1254	0.157752
1266	0.322308
1278	0.551662
1290	0.602585
1302	0.211033
1314	0.059275
1326	0.0349588
1338	0.0317256
1350	0.0328033
1362	0.0276841
1374	0.0260675
1386	0.0198033
1398	0.0197359
1410	0.0408863
1422	0.137276
1434	0.453926
1446	0.389329
1458	0.298531
1470	0.631279
1482	0.337329
1494	0.0793477
1506	0.0449951
1518	0.0342179
1530	0.042907
1542	0.0691093
1554	0.113364
1566	0.261955
1578	0.498651
1590	0.454936
1602	0.132897
1614	0.0288966
1626	0.0245183
1638	0.0228344
1650	0.0242489
1662	0.0125959
1674	0.00963219
1686	0.0114509
1698	0.005456
1710	0.00377205
1722	0.00262696
1734	0.0101037
1746	0.00687052
1758	0.00599486
1770	0.0067358
1782	0.00579279
1794	0.00458034
1806	0.00505185
1818	0.00720731
1830	0.00943012
1842	0.00666844
1854	0.00646637
1866	0.00646637
1878	0.00633165
1890	0.00720731
1902	0.00916069
1914	0.0169742
1926	0.0193991
1938	0.0114509
1950	0.00424355
1962	0.00188602
1974	0.00235753
1986	0.00195338
1998	0.00202074
2010	0.00323318
2022	0.00444563
2034	0.00498449
2046	0.00518657
2058	0.00579279
2070	0.00680316
2082	0.00606222
2094	0.00815032
2106	0.00841975
2118	0.00761145
2130	0.0101711
2142	0.0123939
2154	0.0104405
2166	0.00565807
2178	0.00249225
2190	0.0025596
2202	0.00323318
2214	0.00660108
2226	0.0159638
2238	0.0238447
2250	0.012798
2262	0.00262696
2274	0.00148188
2286	0.000875654
2298	0.0012798
2310	0.00188602
2322	0.0033679
2334	0.00680316
2346	0.00552336
2358	0.00323318
2370	0.00134716
2382	6.7358e-05
2394	0.000404148
2406	0.000404148
2418	0.000943012
2430	0.0012798
2442	0.00296375
2454	0.00282904
2466	0.00195338
2478	0.00114509
2490	0.000404148
2502	0.00101037
2514	0.00195338
2526	0.00397412
2538	0.00579279
2550	0.00781353
2562	0.00808296
2574	0.0067358
2586	0.00404148
2598	0.00363733
2610	0.00323318
2622	0.00370469
2634	0.00484978
2646	0.00471506
2658	0.00289639
2670	0.00195338
2682	0.00168395
2694	0.00195338
2706	0.00235753
2718	0.00397412
2730	0.00518657
2742	0.00599486
2754	0.00646637
2766	0.00532128
2778	0.00390676
2790	0.00444563
2802	0.00511921
2814	0.00808296
2826	0.0141452
2838	0.0311868
2850	0.0675601
2862	0.0482957
2874	0.0312541
2886	0.0346894
2898	0.0330054
2910	0.0390003
2922	0.0501144
2934	0.0608243
2946	0.0996225
2958	0.119089
2970	0.0852752
2982	0.064731
2994	0.0426376
3006	0.0454666
3018	0.0719383
3030	0.0615652
3042	0.0245183
3054	0.0178499
3066	0.0260675
3078	0.0323318
3090	0.0292334
3102	0.0210157
3114	0.00922805
3126	0.00606222
3138	0.00626429
3150	0.00626429
3162	0.00511921
3174	0.00316583
3186	0.0025596
3198	0.00168395
3210	0.00242489
3222	0.00249225
3234	0.00141452
3246	0.00101037
3258	0.00148188
3270	0.00141452
3282	0.000875654
3294	0.00161659
3306	0.00033679
3318	0.00202074
3330	0.0012798
3342	0.00175131
3354	0.00154923
3366	0.00107773
3378	0.0025596
3390	0.00202074
3402	0.00229017
3414	0.00262696
3426	0.00242489
3438	0.00242489
3450	0.00161659
3462	0.00276168
3474	0.00316583
3486	0.0020881
3498	0.00269432
3510	0.00350262
3522	0.00276168
3534	0.00269432
3546	0.00383941
3558	0.00424355
3570	0.00538864
3582	0.00458034
3594	0.00404148
3606	0.00370469
3618	0.00363733
3630	0.00451299
3642	0.00303111
3654	0.00478242
3666	0.00282904
3678	0.00518657
3690	0.00565807
3702	0.00383941
3714	0.00370469
3726	0.00458034
3738	0.00484978
3750	0.00377205
3762	0.00202074
3774	0.00444563
3786	0.00282904
3798	0.00316583
3810	0.00303111
3822	0.00235753
3834	0.00262696
3846	0.00404148
3858	0.00282904
3870	0.00518657
3882	0.00249225
3894	0.00444563
3906	0.00633165
3918	0.00383941
3930	0.00646637
3942	0.00565807
3954	0.00612958
3966	0.00175131
