Infrared Spectrum: 2-Cyclohexylamino-1-phenylethanol
Formula: C 14 H 21 N O
CAS: 6589-48-6
Origin: Sadtler Research Labs Under US-EPA Contract
1/CM	ABSORBANCE
450	0.00858572
462	0.000546364
474	0.00866377
486	0.00577585
498	0.0040587
510	0.00507338
522	0.00913208
534	0.014986
546	0.0207618
558	0.00905403
570	0.00733689
582	0.0124103
594	0.00640026
606	0.0079613
618	0.0112395
630	0.016469
642	0.0112395
654	0.00835156
666	0.0152982
678	0.0274743
690	0.0727445
702	0.138386
714	0.0584609
726	0.0422261
738	0.046519
750	0.0691541
762	0.0544803
774	0.0246644
786	0.0141274
798	0.0110834
810	0.00733689
822	0.00577585
834	0.00561974
846	0.00913208
858	0.00468312
870	0.00640026
882	0.0170153
894	0.0322355
906	0.0269279
918	0.0162348
930	0.0110053
942	0.00749299
954	0.00889793
966	0.0138933
978	0.0144396
990	0.0160007
1002	0.0256011
1014	0.0394163
1026	0.0707151
1038	0.0623635
1050	0.069076
1062	0.0755543
1074	0.0587732
1086	0.0592415
1098	0.0610367
1110	0.0648612
1122	0.0935063
1134	0.113956
1146	0.0770373
1158	0.0457385
1170	0.0362942
1182	0.0416017
1194	0.044958
1206	0.0490167
1218	0.0426164
1230	0.0346551
1242	0.0333282
1254	0.0352795
1266	0.0394943
1278	0.0348892
1290	0.0362161
1302	0.0418359
1314	0.041992
1326	0.0486264
1338	0.0492508
1350	0.0578365
1362	0.0536998
1374	0.0604903
1386	0.045036
1398	0.0430847
1410	0.0349673
1422	0.0243522
1434	0.0346551
1446	0.0834376
1458	0.130113
1470	0.0987358
1482	0.0448799
1494	0.040509
1506	0.0147518
1518	0.00351234
1530	0.0019513
1542	0.00101468
1554	0.00039026
1566	0.000858572
1578	0.00343429
1590	0.00679052
1602	0.0145957
1614	0.00632221
1626	0.0017952
1638	0.00296598
1650	0.00632221
1662	0.00359039
1674	0.00273182
1686	0.00280987
1698	0.00437091
1710	0.0125664
1722	0.0242742
1734	0.0241181
1746	0.00811741
1758	0.00530754
1770	0.00429286
1782	0.00265377
1794	0.00421481
1806	0.00546364
1818	0.00249766
1830	0.000312208
1842	0.000468312
1854	0.00117078
1866	0.00257572
1878	0.00398065
1890	0.0037465
1902	0.00148299
1914	0.00109273
1926	0.00218546
1938	0.00499533
1950	0.00577585
1962	0.00460507
1974	0.00163909
1986	0.00124883
1998	0.000624416
2010	0.00078052
2022	0.000858572
2034	0.00078052
2046	0.000468312
2058	0.000546364
2070	0.000234156
2082	0.000312208
2094	0.000156104
2106	0.00039026
2118	0.000156104
2130	0.000468312
2142	7.8052e-05
2154	0.00039026
2166	0.000312208
2178	0.000468312
2190	0.000546364
2202	7.8052e-05
2214	0.000312208
2226	0.00039026
2238	0.000702468
2250	0.000546364
2262	0.000624416
2274	0.000858572
2286	0.000936624
2298	0.00109273
2310	0.0017952
2322	0.00101468
2334	0.00132688
2346	0.00163909
2358	0.00132688
2370	0.000858572
2382	0.00171714
2394	0.00124883
2406	0.000858572
2418	0.000858572
2430	0.000702468
2442	0.000546364
2454	0.00101468
2466	0.000936624
2478	0.00117078
2490	0.00132688
2502	0.00132688
2514	0.00148299
2526	0.00187325
2538	0.0017952
2550	0.0017952
2562	0.00296598
2574	0.00366844
2586	0.00538559
2598	0.00702468
2610	0.00757104
2622	0.00671247
2634	0.00803936
2646	0.00983455
2658	0.0120981
2670	0.0139713
2682	0.0116297
2694	0.0106931
2706	0.0110053
2718	0.0127225
2730	0.0124103
2742	0.0132688
2754	0.0139713
2766	0.0171714
2778	0.0241181
2790	0.035982
2802	0.0477678
2814	0.0556511
2826	0.0672028
2838	0.0860914
2850	0.142445
2862	0.282548
2874	0.181627
2886	0.116922
2898	0.138776
2910	0.214799
2922	0.332345
2934	0.675306
2946	0.597098
2958	0.150562
2970	0.0533876
2982	0.0246644
2994	0.0152201
3006	0.0160007
3018	0.0241961
3030	0.0573682
3042	0.0546364
3054	0.0391041
3066	0.0628319
3078	0.0696224
3090	0.0401187
3102	0.02404
3114	0.0139713
3126	0.00554169
3138	0.00234156
3150	0.00288792
3162	0.00296598
3174	0.00273182
3186	0.00078052
3198	0.000546364
3210	0.000936624
3222	0.00101468
3234	0.00140494
3246	0.00156104
3258	0.00202935
3270	0.0017952
3282	0.00249766
3294	0.00249766
3306	0.00187325
3318	0.00351234
3330	0.00429286
3342	0.00538559
3354	0.0056978
3366	0.00655637
3378	0.00679052
3390	0.00772715
3402	0.00874182
3414	0.00842962
3426	0.0100687
3438	0.011942
3450	0.0131908
3462	0.0145957
3474	0.0172495
3486	0.0181081
3498	0.0204496
3510	0.0218546
3522	0.0231814
3534	0.0206057
3546	0.0166251
3558	0.0141274
3570	0.0115517
3582	0.00850767
3594	0.00561974
3606	0.00366844
3618	0.00351234
3630	0.0058539
3642	0.0117078
3654	0.0206838
3666	0.00757104
3678	7.8052e-05
3690	0.00156104
3702	0.000312208
3714	0.000624416
3726	0.000546364
3738	0.00039026
3750	7.8052e-05
3762	7.8052e-05
3774	0.000702468
3786	0.00039026
3798	7.8052e-05
3810	0.00117078
3822	7.8052e-05
3834	0.00124883
3846	7.8052e-05
3858	0.00117078
3870	7.8052e-05
3882	0.000624416
3894	0.00109273
3906	0
3918	0.00171714
3930	7.8052e-05
3942	0.000546364
3954	0.00226351
3966	0.000156104
