Infrared Spectrum: Succinimide, N,N'-[(benzylimino)-bismethylene]di-
Formula: C 17 H 19 N 3 O 4
CAS: 65950-41-6
Origin: Sadtler Research Labs Under US-EPA Contract
1/CM	ABSORBANCE
450	0
462	0.0177721
474	0.0289744
486	0.0287639
498	0.0231206
510	0.0388712
522	0.0475046
534	0.038408
546	0.0416086
558	0.0320488
570	0.0368498
582	0.0386185
594	0.0428299
606	0.0496103
618	0.0602651
630	0.0637606
642	0.0885236
654	0.0834278
666	0.0713832
678	0.0503683
690	0.0493155
702	0.0465781
714	0.0379868
726	0.0451041
738	0.0432511
750	0.0471677
762	0.0349125
774	0.031417
786	0.0332279
798	0.0388712
810	0.0395872
822	0.0376078
834	0.0498209
846	0.0333964
858	0.0431668
870	0.03546
882	0.0502841
894	0.0563485
906	0.0433774
918	0.0237523
930	0.0344914
942	0.0312065
954	0.0277531
966	0.0330595
978	0.026616
990	0.0282585
1002	0.0301115
1014	0.0302379
1026	0.0375657
1038	0.0308696
1050	0.0320909
1062	0.0312486
1074	0.0381974
1086	0.038787
1098	0.0382816
1110	0.0405558
1122	0.0593807
1134	0.097157
1146	0.139861
1158	0.128869
1170	0.0881446
1182	0.0493155
1194	0.0464517
1206	0.0417771
1218	0.052095
1230	0.0482626
1242	0.0446408
1254	0.0444724
1266	0.044346
1278	0.0574856
1290	0.0541165
1302	0.0649819
1314	0.0693196
1326	0.0971149
1338	0.114171
1350	0.0854493
1362	0.0532742
1374	0.0381974
1386	0.0365128
1398	0.0324278
1410	0.0304905
1422	0.030659
1434	0.0383659
1446	0.0386607
1458	0.0373551
1470	0.0330174
1482	0.0312907
1494	0.03028
1506	0.0295219
1518	0.0280479
1530	0.0259422
1542	0.0250578
1554	0.025479
1566	0.0256895
1578	0.025479
1590	0.0277952
1602	0.029564
1614	0.0268266
1626	0.0275426
1638	0.0279637
1650	0.031417
1662	0.0312486
1674	0.029564
1686	0.0364707
1698	0.0518002
1710	0.0916401
1722	0.112823
1734	0.122973
1746	0.161928
1758	0.262118
1770	0.406653
1782	0.369677
1794	0.23188
1806	0.0722676
1818	0.0574014
1830	0.0453568
1842	0.0301536
1854	0.0240892
1866	0.0228258
1878	0.022152
1890	0.0215624
1902	0.0211833
1914	0.0212255
1926	0.0214781
1938	0.0219414
1950	0.0215203
1962	0.0203411
1974	0.0197515
1986	0.0192882
1998	0.018488
2010	0.0185723
2022	0.01773
2034	0.0178984
2046	0.0185723
2058	0.0179827
2070	0.0176879
2082	0.0178142
2094	0.0173931
2106	0.0175194
2118	0.0174352
2130	0.0171404
2142	0.0169719
2154	0.0168877
2166	0.0173931
2178	0.0172246
2190	0.0172667
2202	0.0171404
2214	0.0168035
2226	0.0176458
2238	0.0172246
2250	0.0168035
2262	0.0172667
2274	0.0177721
2286	0.0184038
2298	0.0203832
2310	0.0210991
2322	0.0200463
2334	0.0185723
2346	0.0202147
2358	0.0202568
2370	0.0207622
2382	0.0197515
2394	0.0159191
2406	0.0152032
2418	0.0159191
2430	0.0154558
2442	0.0156243
2454	0.0157927
2466	0.0152874
2478	0.0159191
2490	0.0154137
2502	0.015161
2514	0.0152874
2526	0.0144872
2538	0.0149084
2550	0.015161
2562	0.0144451
2574	0.0149926
2586	0.0148241
2598	0.0159612
2610	0.0150768
2622	0.0154558
2634	0.0162139
2646	0.0159191
2658	0.0164666
2670	0.0162981
2682	0.0164245
2694	0.0168035
2706	0.0175615
2718	0.0188671
2730	0.019583
2742	0.019204
2754	0.0182775
2766	0.0201726
2778	0.0200041
2790	0.0218993
2802	0.0255632
2814	0.025479
2826	0.0251421
2838	0.0275426
2850	0.0292692
2862	0.0293113
2874	0.026616
2886	0.0265318
2898	0.026616
2910	0.0261528
2922	0.0254369
2934	0.0247209
2946	0.0286375
2958	0.0309538
2970	0.0290165
2982	0.026237
2994	0.024384
3006	0.0247209
3018	0.0272056
3030	0.0294377
3042	0.0283848
3054	0.0242577
3066	0.0264055
3078	0.0290165
3090	0.0263634
3102	0.0225731
3114	0.0213518
3126	0.0194988
3138	0.0192882
3150	0.0184459
3162	0.0179827
3174	0.0172246
3186	0.0175615
3198	0.0177721
3210	0.0180248
3222	0.0180669
3234	0.0180669
3246	0.0178563
3258	0.0190776
3270	0.0178984
3282	0.0182775
3294	0.0178563
3306	0.018109
3318	0.0186144
3330	0.018109
3342	0.018488
3354	0.0171404
3366	0.0179406
3378	0.0189092
3390	0.0179406
3402	0.0191198
3414	0.0189092
3426	0.0245103
3438	0.0329753
3450	0.0466623
3462	0.0440512
3474	0.0401768
3486	0.0216887
3498	0.0205937
3510	0.018109
3522	0.0218572
3534	0.0190776
3546	0.0217308
3558	0.0223204
3570	0.0189513
3582	0.0183196
3594	0.0223625
3606	0.0187407
3618	0.0183617
3630	0.0214781
3642	0.0160875
3654	0.0185723
3666	0.0186986
3678	0.0170983
3690	0.0202568
3702	0.0211833
3714	0.018488
3726	0.0176037
3738	0.0178142
3750	0.0212255
3762	0.0203411
3774	0.0160875
3786	0.0196251
3798	0.0176458
3810	0.0197936
3822	0.0168456
3834	0.0204674
3846	0.0184459
3858	0.0204253
3870	0.0160875
3882	0.0146136
3894	0.0217729
3906	0.0184038
3918	0.0301536
3930	0.0251421
3942	0.0207201
3954	0.0204253
3966	0.0241313
