Infrared Spectrum: Hexanal
Formula: C 6 H 12 O
CAS: 66-25-1
Origin: Sadtler Research Labs Under US-EPA Contract
1/CM	ABSORBANCE
450	0.00884562
462	0.00968806
474	0.016933
486	0.00909835
498	0.010025
510	0.0174385
522	0.0253574
534	0.0256944
546	0.0199658
558	0.00775045
570	0.00901411
582	0.00834016
594	0.0161748
606	0.00859289
618	0.00606557
630	0.0118784
642	0.00808742
654	0.010362
666	0.0121311
678	0.0133948
690	0.00867713
702	0.00825591
714	0.0122996
726	0.0195446
738	0.0261999
750	0.0180282
762	0.0105305
774	0.0114572
786	0.010699
798	0.010699
810	0.0117942
822	0.010699
834	0.0111202
846	0.0155009
858	0.0199658
870	0.0186179
882	0.0202186
894	0.0282217
906	0.0299909
918	0.027632
930	0.0313388
942	0.0369831
954	0.0359722
966	0.0329394
978	0.0297381
990	0.0325182
1002	0.0381625
1014	0.0469239
1026	0.0574544
1038	0.0564435
1050	0.0477663
1062	0.0447336
1074	0.0467554
1086	0.052147
1098	0.055938
1110	0.0569489
1122	0.0621721
1134	0.0679849
1146	0.0599817
1158	0.0469239
1170	0.0443966
1182	0.0406056
1194	0.0406899
1206	0.0400159
1218	0.039005
1230	0.0385838
1242	0.0381625
1254	0.0363092
1266	0.0365619
1278	0.0377413
1290	0.0381625
1302	0.0378256
1314	0.0357195
1326	0.0371516
1338	0.0475136
1350	0.0572859
1362	0.060066
1374	0.066637
1386	0.0928369
1398	0.080453
1410	0.0630988
1422	0.0618351
1434	0.0584653
1446	0.0713547
1458	0.105558
1470	0.111371
1482	0.0567805
1494	0.0222404
1506	0.00960382
1518	0.00522313
1530	0.0028643
1542	0.00117942
1554	0.0021061
1566	0.00193761
1578	0.00244308
1590	0.00151639
1602	0.00227459
1614	0.00395947
1626	0.00387522
1638	0.00892986
1650	0.0111202
1662	0.0137318
1674	0.0235883
1686	0.0428802
1698	0.0846652
1710	0.163265
1722	0.233103
1734	0.55879
1746	0.678922
1758	0.377245
1770	0.191318
1782	0.12645
1794	0.0775887
1806	0.0419535
1818	0.0219877
1830	0.0139003
1842	0.00867713
1854	0.00673952
1866	0.00572859
1878	0.00387522
1890	0.00303278
1902	0.003454
1914	0.00219034
1926	0.00185337
1938	0.00261156
1950	0.00117942
1962	0.00151639
1974	0.000926684
1986	0.000505464
1998	0.000589708
2010	0.000926684
2022	0.000168488
2034	0.00227459
2046	0.00278005
2058	0.00261156
2070	0.00269581
2082	0.00303278
2094	0.00176912
2106	0.0021061
2118	0.00143215
2130	0.00109517
2142	0.0021061
2154	0.00160064
2166	0.00227459
2178	0.00244308
2190	0.00126366
2202	0.00168488
2214	0.00160064
2226	0.000673952
2238	0.00143215
2250	0.00126366
2262	0.0013479
2274	0.00168488
2286	0.00219034
2298	0.00303278
2310	0.0055601
2322	0.00311703
2334	0.00252732
2346	0.0042122
2358	0.00336976
2370	0.00101093
2382	0.00168488
2394	0.00143215
2406	0.00101093
2418	0.000758196
2430	0.000336976
2442	0.00109517
2454	0.00109517
2466	0.00117942
2478	0.00101093
2490	0.00084244
2502	0.000336976
2514	0.000673952
2526	0.000758196
2538	0.00185337
2550	0.00235883
2562	0.00303278
2574	0.00370674
2586	0.00547586
2598	0.00614981
2610	0.00876138
2622	0.0126366
2634	0.0170173
2646	0.0243465
2658	0.0344558
2670	0.0509676
2682	0.0810427
2694	0.140098
2706	0.251468
2718	0.248183
2730	0.140519
2742	0.0991552
2754	0.0817167
2766	0.0740505
2778	0.0816324
2790	0.112297
2802	0.170594
2814	0.199995
2826	0.152734
2838	0.124513
2850	0.163433
2862	0.292074
2874	0.395694
2886	0.404034
2898	0.3438
2910	0.374633
2922	0.538825
2934	0.78667
2946	0.804193
2958	0.654323
2970	0.729132
2982	0.395947
2994	0.139424
3006	0.0708492
3018	0.0479348
3030	0.0368989
3042	0.0288114
3054	0.0228301
3066	0.0185337
3078	0.0160906
3090	0.014153
3102	0.0136475
3114	0.0117099
3126	0.0101093
3138	0.00935108
3150	0.0084244
3162	0.00985655
3174	0.00876138
3186	0.0084244
3198	0.00732923
3210	0.00690801
3222	0.00640254
3234	0.00716074
3246	0.00547586
3258	0.00513888
3270	0.00387522
3282	0.00328552
3294	0.00278005
3306	0.00084244
3318	0.000673952
3330	0.00235883
3342	0.00160064
3354	0.00252732
3366	0.00185337
3378	0.00185337
3390	0.00303278
3402	0.00278005
3414	0.00387522
3426	0.00614981
3438	0.00825591
3450	0.00926684
3462	0.0136475
3474	0.0150797
3486	0.0104463
3498	0.00471766
3510	0.00429644
3522	0.00311703
3534	0.00480191
3546	0.00539162
3558	0.00682376
3570	0.0181967
3582	0.0273793
3594	0.0145742
3606	0.0129736
3618	0.010362
3630	0.00951957
3642	0.0101935
3654	0.0160906
3666	0.0112045
3678	0.00446493
3690	0.00446493
3702	0.00370674
3714	0.00320127
3726	0.00294854
3738	0.00547586
3750	0.00488615
3762	0.00294854
3774	0.00572859
3786	0.00336976
3798	0.00362249
3810	0.00606557
3822	0.0042122
3834	0.00328552
3846	0.00522313
3858	0.00623406
3870	0.00657103
3882	0.00640254
3894	0.00690801
3906	0.00463342
3918	0.00800318
3930	0.00395947
3942	0.00732923
3954	0.00303278
3966	0.0076662
