Infrared Spectrum: 1-Naphthalenecarboxaldehyde
Formula: C 11 H 8 O
CAS: 66-77-3
Origin: Sadtler Research Labs Under US-EPA Contract
1/CM	ABSORBANCE
450	0.000425811
462	0.00950978
474	0.00681298
486	0.0144776
498	0.0431488
510	0.045136
522	0.047265
534	0.0298068
546	0.0232777
558	0.0143356
570	0.0109291
582	0.0116388
594	0.0158969
606	0.0129163
618	0.00993559
630	0.0312261
642	0.120505
654	0.108582
666	0.0254067
678	0.0065291
690	0.0102195
702	0.0519489
714	0.114259
726	0.0621684
738	0.040452
750	0.0621684
762	0.240299
774	0.384791
786	0.252506
798	0.419708
810	0.167344
822	0.0344907
834	0.0116388
846	0.0168905
858	0.0475489
870	0.0476908
882	0.106453
894	0.0719621
906	0.0102195
918	0.00610329
930	0.00525167
942	0.00752266
954	0.0110711
966	0.0146195
978	0.0129163
990	0.0132001
1002	0.020297
1014	0.0367617
1026	0.0465553
1038	0.056349
1050	0.146053
1062	0.144066
1074	0.0442843
1086	0.0235615
1098	0.00709685
1110	0.00709685
1122	0.0144776
1134	0.0211486
1146	0.0380391
1158	0.099072
1170	0.168621
1182	0.0628781
1194	0.0425811
1206	0.133989
1218	0.198428
1230	0.102762
1242	0.0342068
1254	0.022426
1266	0.0227099
1278	0.0178841
1290	0.00894203
1302	0.00610329
1314	0.00979365
1326	0.0231357
1338	0.0526586
1350	0.0493941
1362	0.0376133
1374	0.0367617
1386	0.0325036
1398	0.0376133
1410	0.0330713
1422	0.0207228
1434	0.0201551
1446	0.0397424
1458	0.0557812
1470	0.0370456
1482	0.0156131
1494	0.0457037
1506	0.136827
1518	0.142647
1530	0.0421553
1542	0.0109291
1554	0.0205809
1566	0.065433
1578	0.107446
1590	0.0776395
1602	0.051807
1614	0.0308003
1626	0.0432908
1638	0.0357681
1650	0.0235615
1662	0.0245551
1674	0.0445682
1686	0.0817557
1698	0.420275
1710	1.29702
1722	0.865248
1734	0.111421
1746	0.0394585
1758	0.0526586
1770	0.0704008
1782	0.0645813
1794	0.0530844
1806	0.0452779
1818	0.0349165
1830	0.0222841
1842	0.0167486
1854	0.0163228
1866	0.0154711
1878	0.0177421
1890	0.0150453
1902	0.0132001
1914	0.0181679
1926	0.0245551
1938	0.0279616
1950	0.0214325
1962	0.0143356
1974	0.00851622
1986	0.00454198
1998	0.00397424
2010	0.00369036
2022	0.00326455
2034	0.0026968
2046	0.00312261
2058	0.00440005
2070	0.00298068
2082	0.00326455
2094	0.00525167
2106	0.00425811
2118	0.0038323
2130	0.00440005
2142	0.00525167
2154	0.00411617
2166	0.00283874
2178	0.00312261
2190	0.00369036
2202	0.00354843
2214	0.00369036
2226	0.00510973
2238	0.00581942
2250	0.00624523
2262	0.00567748
2274	0.00638716
2286	0.00780653
2298	0.0092259
2310	0.0114969
2322	0.0133421
2334	0.011213
2346	0.00723879
2358	0.0102195
2370	0.00227099
2382	0.0038323
2394	0.00156131
2406	0.00241293
2418	0.00411617
2430	0.00312261
2442	0.00212905
2454	0.00255487
2466	0.00227099
2478	0.00212905
2490	0.00198712
2502	0.00198712
2514	0.00227099
2526	0.00170324
2538	0.00212905
2550	0.00298068
2562	0.0038323
2574	0.00454198
2586	0.00539361
2598	0.00624523
2610	0.00695491
2622	0.00837428
2634	0.0102195
2646	0.0120646
2658	0.0132001
2670	0.0156131
2682	0.0231357
2694	0.0413037
2706	0.118234
2718	0.278622
2730	0.201551
2742	0.0889945
2754	0.076504
2766	0.0679878
2778	0.0613168
2790	0.0530844
2802	0.0560651
2814	0.0779234
2826	0.10333
2838	0.100349
2850	0.0818976
2862	0.056349
2874	0.0300906
2886	0.0190196
2898	0.0144776
2910	0.015755
2922	0.0158969
2934	0.0164647
2946	0.0205809
2958	0.0220002
2970	0.0181679
2982	0.0156131
2994	0.0188776
3006	0.0309423
3018	0.042865
3030	0.0574845
3042	0.106311
3054	0.186363
3066	0.238738
3078	0.167911
3090	0.11355
3102	0.0882848
3114	0.0329294
3126	0.0103614
3138	0.00851622
3150	0.00738072
3162	0.00610329
3174	0.00667104
3186	0.00709685
3198	0.00510973
3210	0.00482586
3222	0.00610329
3234	0.00624523
3246	0.00496779
3258	0.00369036
3270	0.00411617
3282	0.00425811
3294	0.00454198
3306	0.00468392
3318	0.00667104
3330	0.00681298
3342	0.00539361
3354	0.00610329
3366	0.0076646
3378	0.00823235
3390	0.0137679
3402	0.0235615
3414	0.0215744
3426	0.00823235
3438	0.0065291
3450	0.00397424
3462	0.00638716
3474	0.0065291
3486	0.00440005
3498	0.00553554
3510	0.00567748
3522	0.00510973
3534	0.00397424
3546	0.00638716
3558	0.00936784
3570	0.0105033
3582	0.00993559
3594	0.0109291
3606	0.0076646
3618	0.0038323
3630	0.00425811
3642	0.00354843
3654	0.00425811
3666	0.00525167
3678	0.00454198
3690	0.00723879
3702	0.00340649
3714	0.00482586
3726	0.0065291
3738	0.00695491
3750	0.00482586
3762	0.0011355
3774	0.00738072
3786	0.00425811
3798	0.00510973
3810	0.00283874
3822	0.00738072
3834	0.00681298
3846	0.00567748
3858	0.00780653
3870	0.00638716
3882	0.00553554
3894	0.0102195
3906	0.00738072
3918	0.00738072
3930	0.00340649
3942	0.00794847
3954	0.00823235
3966	0.00993559
