Infrared Spectrum: 1,3-Benzenediol, 4-bromo-
Formula: C 6 H 5 Br O 2
CAS: 6626-15-9
Origin: Sadtler Research Labs Under US-EPA Contract
1/CM	ABSORBANCE
450	0.00501031
462	0.0113064
474	0.00452258
486	0.00758197
498	0.0234997
510	0.0203959
522	0.00638482
534	0.00953288
546	0.00713858
558	0.00957722
570	0.0248298
582	0.0143215
594	0.049571
606	0.0397277
618	0.0180016
630	0.00585275
642	0.0036358
654	0.052187
666	0.0258496
678	0.0316137
690	0.012814
702	0.0070499
714	0.00350278
726	0.00594143
738	0.0133904
750	0.0211054
762	0.0279779
774	0.0472654
786	0.0454918
798	0.0347618
810	0.0135234
822	0.0200412
834	0.0455362
846	0.0351165
858	0.033609
870	0.0299288
882	0.00855743
894	0.000620746
906	0.000975458
918	0.00305939
930	0.0018179
942	0.0174696
954	0.0519653
966	0.102955
978	0.0371117
990	0.012814
1002	0.0171592
1014	0.0191101
1026	0.0280666
1038	0.0311703
1050	0.0117498
1062	0.0181347
1074	0.0142328
1086	0.0150753
1098	0.0146319
1110	0.0293968
1122	0.101536
1134	0.216906
1146	0.324207
1158	0.256678
1170	0.214822
1182	0.44339
1194	0.250737
1206	0.187377
1218	0.190569
1230	0.12007
1242	0.0616312
1254	0.0689915
1266	0.0795442
1278	0.0719622
1290	0.117055
1302	0.150575
1314	0.150841
1326	0.130977
1338	0.206708
1350	0.116745
1362	0.0209723
1374	0.00736027
1386	0.00407919
1398	0.00474427
1410	0.00580841
1422	0.012681
1434	0.0301949
1446	0.0850422
1458	0.233001
1470	0.29512
1482	0.230031
1494	0.264482
1506	0.0908063
1518	0.0374665
1530	0.0293524
1542	0.0315694
1554	0.031126
1566	0.0438956
1578	0.104064
1590	0.201343
1602	0.290598
1614	0.217749
1626	0.120912
1638	0.0403042
1650	0.0202629
1662	0.0163611
1674	0.0106857
1686	0.00780366
1698	0.00767065
1710	0.00731593
1722	0.00585275
1734	0.00421221
1746	0.002616
1758	0.00186224
1770	0.00350278
1782	0.00190658
1794	0.00177356
1806	0.00137451
1818	0.00208393
1830	0.00257166
1842	0.00234997
1854	0.00292637
1866	0.00301505
1878	0.00301505
1890	0.00376881
1902	0.0034141
1914	0.00314807
1926	0.00257166
1938	0.00208393
1950	0.00230563
1962	0.00234997
1974	0.00186224
1986	0.00195092
1998	0.00297071
2010	0.00239431
2022	0.00234997
2034	0.00248298
2046	0.00274902
2058	0.00297071
2070	0.00252732
2082	0.00239431
2094	0.00274902
2106	0.00292637
2118	0.00239431
2130	0.00239431
2142	0.00234997
2154	0.00274902
2166	0.00226129
2178	0.00217261
2190	0.00239431
2202	0.00274902
2214	0.00274902
2226	0.00332542
2238	0.00301505
2250	0.00305939
2262	0.00319241
2274	0.00430088
2286	0.00576407
2298	0.00838007
2310	0.0112621
2322	0.0108187
2334	0.0088678
2346	0.0123262
2358	0.00877912
2370	0.00802536
2382	0.00833573
2394	0.00328109
2406	0.00394617
2418	0.00465559
2430	0.00611878
2442	0.00638482
2454	0.00611878
2466	0.00589709
2478	0.00660651
2490	0.00687254
2502	0.00563105
2514	0.00518766
2526	0.0044339
2538	0.00301505
2550	0.00239431
2562	0.0028377
2574	0.002616
2586	0.002616
2598	0.00292637
2610	0.00297071
2622	0.00297071
2634	0.002616
2646	0.00212827
2658	0.00177356
2670	0.00133017
2682	0.00124149
2694	0.00106414
2706	0.00115281
2718	0.000931119
2730	0.00137451
2742	0.00168488
2754	0.00208393
2766	0.00230563
2778	0.00195092
2790	0.00239431
2802	0.00234997
2814	0.00199526
2826	0.00164054
2838	0.00141885
2850	0.00088678
2862	0.00119715
2874	0.00115281
2886	0.000665085
2898	0.000532068
2910	0.00137451
2922	0.00137451
2934	0.00186224
2946	0.00230563
2958	0.00164054
2970	0.000532068
2982	0.00106414
2994	0.00137451
3006	0.00186224
3018	0.00456692
3030	0.0108631
3042	0.0196422
3054	0.0169818
3066	0.012681
3078	0.0108631
3090	0.0101093
3102	0.00656217
3114	0.00354712
3126	0.00243864
3138	0.00186224
3150	0.00186224
3162	0.00150753
3174	0.00155186
3186	0.00195092
3198	0.00208393
3210	0.00208393
3222	0.00146319
3234	0.0015962
3246	0.00137451
3258	0.000975458
3270	0.00172922
3282	0.00133017
3294	0.00190658
3306	0.00172922
3318	0.00252732
3330	0.00274902
3342	0.00527634
3354	0.00580841
3366	0.00452258
3378	0.00381315
3390	0.00226129
3402	0.00234997
3414	0.00292637
3426	0.00310373
3438	0.00270468
3450	0.00226129
3462	0.00234997
3474	0.00257166
3486	0.00257166
3498	0.00226129
3510	0.00359146
3522	0.00554237
3534	0.0234553
3546	0.133239
3558	0.333961
3570	0.0931562
3582	0.0473984
3594	0.015563
3606	0.00571973
3618	0.00718292
3630	0.0191101
3642	0.10065
3654	0.20192
3666	0.086461
3678	0.0109074
3690	0.00447824
3702	0.00328109
3714	0.00248298
3726	0.00310373
3738	0.00390183
3750	0.00501031
3762	0.00323675
3774	0.00279336
3786	0.00217261
3798	0.00323675
3810	0.00208393
3822	0.00376881
3834	0.00407919
3846	0.00270468
3858	0.00456692
3870	0.00447824
3882	0.00328109
3894	0.00354712
3906	0.00483295
3918	0.00407919
3930	0.00456692
3942	0.00336976
3954	0.00403485
3966	0.00354712
