Infrared Spectrum: Phenol, 2-bromo-4-methyl-
Formula: C 7 H 7 Br O
CAS: 6627-55-0
Origin: Sadtler Research Labs Under US-EPA Contract
1/CM	ABSORBANCE
450	0.0240786
462	0.0267444
474	0.016769
486	0.0607125
498	0.0369778
510	0
522	0.00791154
534	0.0196929
546	0.0478132
558	0.0276904
570	0.0119533
582	0.0111794
594	0.0136732
606	0.016597
618	0.0205528
630	0.0153071
642	0.00885749
654	0.0104914
666	0.0419656
678	0.0569287
690	0.0375798
702	0.0223587
714	0.0122973
726	0.016855
738	0.0370638
750	0.120307
762	0.13269
774	0.0540049
786	0.0192629
798	0.0587346
810	0.164594
822	0.141376
834	0.034398
846	0.0257125
858	0.0616584
870	0.0659582
882	0.0391277
894	0.0146192
906	0.00937346
918	0.0109214
930	0.0135012
942	0.017113
954	0.0123833
966	0.0127273
978	0.0209828
990	0.035
1002	0.0243366
1014	0.0155651
1026	0.0275184
1038	0.110762
1050	0.0749016
1062	0.0227027
1074	0.0213268
1086	0.0282064
1098	0.0295823
1110	0.0199508
1122	0.0219287
1134	0.0359459
1146	0.0383538
1158	0.0577886
1170	0.212064
1182	0.500491
1194	0.382764
1206	0.251793
1218	0.195295
1230	0.085393
1242	0.0978623
1254	0.218599
1266	0.167002
1278	0.319299
1290	0.290319
1302	0.0309582
1314	0.0399017
1326	0.108182
1338	0.123661
1350	0.0396437
1362	0.0311302
1374	0.0270024
1386	0.0271744
1398	0.0367199
1410	0.0557248
1422	0.0454054
1434	0.033624
1446	0.0258845
1458	0.0304422
1470	0.0448034
1482	0.174914
1494	0.708771
1506	0.710921
1518	0.148341
1530	0.0564127
1542	0.0257125
1554	0.0261425
1566	0.0260565
1578	0.0541769
1590	0.0638943
1602	0.0539189
1614	0.0730098
1626	0.0420516
1638	0.0185749
1650	0.00945945
1662	0.00911547
1674	0.0103194
1686	0.00851351
1698	0.00920147
1710	0.0112653
1722	0.0182309
1734	0.0197789
1746	0.0158231
1758	0.0132432
1770	0.0086855
1782	0.00558968
1794	0.00670761
1806	0.00937346
1818	0.00730958
1830	0.00558968
1842	0.00593366
1854	0.00636363
1866	0.00791154
1878	0.0155651
1890	0.0149631
1902	0.00653562
1914	0.00601965
1926	0.00533169
1938	0.00644963
1950	0.00541769
1962	0.00550368
1974	0.00438574
1986	0.00472973
1998	0.00498771
2010	0.00550368
2022	0.00679361
2034	0.00945945
2046	0.00877149
2058	0.00670761
2070	0.00636363
2082	0.00567567
2094	0.00455774
2106	0.00386978
2118	0.00309582
2130	0.00395577
2142	0.00386978
2154	0.00481572
2166	0.00412776
2178	0.00361179
2190	0.0035258
2202	0.00283784
2214	0.00309582
2226	0.0035258
2238	0.00421376
2250	0.00498771
2262	0.0051597
2274	0.00438574
2286	0.00326781
2298	0.00300983
2310	0.00266585
2322	0.00309582
2334	0.00154791
2346	0.00249386
2358	0.00619164
2370	0.00412776
2382	0.00361179
2394	0.00507371
2406	0.00395577
2418	0.00386978
2430	0.00481572
2442	0.00455774
2454	0.00601965
2466	0.00885749
2478	0.0086855
2490	0.0068796
2502	0.00653562
2514	0.00610565
2526	0.00653562
2538	0.0086855
2550	0.00619164
2562	0.00472973
2574	0.00455774
2586	0.00455774
2598	0.00507371
2610	0.00386978
2622	0.00369779
2634	0.00214988
2646	0.00120393
2658	0.00163391
2670	0.00249386
2682	0.00395577
2694	0.00318182
2706	0.0035258
2718	0.00395577
2730	0.00438574
2742	0.00756756
2754	0.0104914
2766	0.00644963
2778	0.00601965
2790	0.00498771
2802	0.00507371
2814	0.00653562
2826	0.00739557
2838	0.00825552
2850	0.0138452
2862	0.0297543
2874	0.0587346
2886	0.0579606
2898	0.0454054
2910	0.0473832
2922	0.0716338
2934	0.121597
2946	0.0972603
2958	0.0477272
2970	0.0325061
2982	0.0286363
2994	0.0372358
3006	0.0473832
3018	0.0560687
3030	0.0586486
3042	0.0884889
3054	0.0620884
3066	0.0429975
3078	0.033624
3090	0.0242506
3102	0.0137592
3114	0.00851351
3126	0.00756756
3138	0.00455774
3150	0.00421376
3162	0.00412776
3174	0.0051597
3186	0.00421376
3198	0.00404177
3210	0.00455774
3222	0.00361179
3234	0.00395577
3246	0.00412776
3258	0.00421376
3270	0.00593366
3282	0.00644963
3294	0.00533169
3306	0.00533169
3318	0.00395577
3330	0.00335381
3342	0.00421376
3354	0.00507371
3366	0.00670761
3378	0.00567567
3390	0.00507371
3402	0.00490172
3414	0.0017199
3426	0.00275184
3438	0.00369779
3450	0.00550368
3462	0.00300983
3474	0.00438574
3486	0.00197788
3498	0.00257985
3510	0.00438574
3522	0.00653562
3534	0.0109214
3546	0.0321621
3558	0.331511
3570	0.382936
3582	0.0675921
3594	0.0117813
3606	0.00335381
3618	0.000601965
3630	0.00464373
3642	0.0204668
3654	0.0292383
3666	0.0230467
3678	0.0052457
3690	0.00378378
3702	0.0069656
3714	0.00429975
3726	0.00447174
3738	0.00498771
3750	0.00533169
3762	0.00988943
3774	0.00963144
3786	0.0101474
3798	0.0085995
3810	0.00988943
3822	0.0115233
3834	0.0114373
3846	0.00902948
3858	0.00189189
3870	0.00541769
3882	0.00739557
3894	0.0110074
3906	0.00722358
3918	0.00988943
3930	0.0116093
3942	0.0107494
3954	0.0128993
3966	0.0129852
