Infrared Spectrum: Carbonic acid 1,1-dimethylethyl ester
Formula: C 11 H 14 O 3
CAS: 6627-89-0
Origin: Sadtler Research Labs Under US-EPA Contract
1/CM	ABSORBANCE
450	0
462	0.0477007
474	0.0239301
486	0.0240896
498	0.0414788
510	0.0275994
522	0.0130818
534	0.0154748
546	0.0145176
558	0.00909344
570	0.0175487
582	0.0178678
594	0.0191441
606	0.0181869
618	0.0129223
630	0.0111674
642	0.011646
654	0.0134009
666	0.0226538
678	0.0478602
690	0.0928488
702	0.0532844
714	0.0818409
726	0.0990706
738	0.0544011
750	0.122522
762	0.0652494
774	0.0848721
786	0.0930083
798	0.0528058
810	0.0708331
822	0.10625
834	0.0650899
846	0.0250468
858	0.0215371
870	0.0382882
882	0.0824791
894	0.049296
906	0.0641327
918	0.0523272
930	0.0274398
942	0.0180273
954	0.0138795
966	0.0156343
978	0.0196227
990	0.0218562
1002	0.0365333
1014	0.0523272
1026	0.0786503
1038	0.0417979
1050	0.0443505
1062	0.0470625
1074	0.0438718
1086	0.0331831
1098	0.03765
1110	0.0579108
1122	0.0776931
1134	0.182666
1146	0.569377
1158	1.42049
1170	1.46532
1182	0.810273
1194	0.39022
1206	0.296095
1218	0.54417
1230	0.687113
1242	0.544809
1254	0.928966
1266	1.36832
1278	1.37821
1290	0.355442
1302	0.129861
1314	0.0837553
1326	0.0523272
1338	0.042117
1350	0.0413193
1362	0.0628564
1374	0.197982
1386	0.089339
1398	0.104814
1410	0.0417979
1422	0.0301519
1434	0.0264826
1446	0.0350975
1458	0.0612611
1470	0.0920511
1482	0.107845
1494	0.260998
1506	0.150441
1518	0.0358952
1530	0.0202608
1542	0.0229729
1554	0.020899
1566	0.0201013
1578	0.0311091
1590	0.0883818
1602	0.137837
1614	0.0408407
1626	0.0193036
1638	0.0178678
1650	0.0199417
1662	0.0105292
1674	0.016432
1686	0.0216966
1698	0.0237706
1710	0.0237706
1722	0.0330235
1734	0.0456267
1746	0.0595062
1758	0.191441
1770	0.676265
1782	0.504447
1794	0.271846
1806	0.0528058
1818	0.0250468
1830	0.0226538
1842	0.018825
1854	0.0167511
1866	0.0156343
1878	0.0126032
1890	0.0106888
1902	0.00733856
1914	0.00909344
1926	0.0118055
1938	0.0127627
1950	0.0138795
1962	0.0106888
1974	0.00957204
1986	0.00813623
1998	0.00733856
2010	0.0074981
2022	0.0089339
2034	0.0113269
2046	0.0127627
2058	0.0105292
2070	0.0084553
2082	0.00717903
2094	0.00638136
2106	0.00638136
2118	0.00606229
2130	0.00670043
2142	0.0074981
2154	0.0084553
2166	0.00733856
2178	0.0070195
2190	0.00670043
2202	0.00733856
2214	0.00733856
2226	0.0070195
2238	0.00685996
2250	0.00813623
2262	0.00957204
2274	0.0103697
2286	0.011646
2298	0.0124437
2310	0.0132413
2322	0.0124437
2334	0.00813623
2346	0.00973157
2358	0.00590276
2370	0.0074981
2382	0.00542416
2394	0.00414788
2406	0.00478602
2418	0.00542416
2430	0.00542416
2442	0.00526462
2454	0.00398835
2466	0.00366928
2478	0.00366928
2490	0.00462649
2502	0.00446695
2514	0.00446695
2526	0.00430742
2538	0.00303115
2550	0.00287161
2562	0.00223348
2574	0.00207394
2586	0.00175487
2598	0.00159534
2610	0.00207394
2622	0.00287161
2634	0.00271208
2646	0.00287161
2658	0.00255254
2670	0.00159534
2682	0.00143581
2694	0.00143581
2706	0.00127627
2718	0.00159534
2730	0.00319068
2742	0.00303115
2754	0.00239301
2766	0.00239301
2778	0.00255254
2790	0.00430742
2802	0.00398835
2814	0.00510509
2826	0.00685996
2838	0.00622183
2850	0.00622183
2862	0.0102102
2874	0.0186655
2886	0.0272803
2898	0.032864
2910	0.0382882
2922	0.0462649
2934	0.0630159
2946	0.0880628
2958	0.0614206
2970	0.0754596
2982	0.172137
2994	0.226857
3006	0.065728
3018	0.0583894
3030	0.0290352
3042	0.03765
3054	0.0647708
3066	0.0419574
3078	0.0534439
3090	0.0569536
3102	0.0287161
3114	0.0221752
3126	0.00877437
3138	0.00478602
3150	0.00366928
3162	0.00398835
3174	0.00462649
3186	0.00446695
3198	0.00430742
3210	0.00446695
3222	0.00446695
3234	0.00430742
3246	0.00462649
3258	0.00382882
3270	0.00350975
3282	0.00319068
3294	0.00271208
3306	0.00382882
3318	0.00414788
3330	0.00382882
3342	0.00398835
3354	0.00494555
3366	0.00462649
3378	0.00478602
3390	0.00382882
3402	0.00478602
3414	0.00414788
3426	0.00430742
3438	0.00446695
3450	0.00478602
3462	0.00398835
3474	0.00414788
3486	0.00350975
3498	0.00382882
3510	0.00414788
3522	0.00510509
3534	0.00590276
3546	0.00287161
3558	0.00350975
3570	0.00430742
3582	0.00207394
3594	0.00462649
3606	0.00271208
3618	0.00366928
3630	0.00717903
3642	0.00654089
3654	0.0145176
3666	0.00957204
3678	0.00638136
3690	0.00558369
3702	0.00350975
3714	0.00558369
3726	0.00111674
3738	0.00382882
3750	0.011965
3762	0.00255254
3774	0.00478602
3786	0.00223348
3798	0.00654089
3810	0.00398835
3822	0.00909344
3834	0.00670043
3846	0.00526462
3858	0.0100506
3870	0.00829577
3882	0.00622183
3894	0.00622183
3906	0.00670043
3918	0.0070195
3930	0.00733856
3942	0.00717903
3954	0.00765763
3966	0.0089339
