Infrared Spectrum: Naphthalene, 1-bromo-4-methyl-
Formula: C 11 H 9 Br
CAS: 6627-78-7
Origin: Sadtler Research Labs Under US-EPA Contract
1/CM	ABSORBANCE
450	0.00492454
462	0.0116759
474	0.0235901
486	0.00945193
498	0.0138205
510	0.00532168
522	0.045274
534	0.0102462
546	0.00905479
558	0.0133439
570	0.0256552
582	0.016521
594	0.0149325
606	0.0343923
618	0.115171
630	0.0613184
642	0.013741
654	0.00921365
666	0
678	0.00810166
690	0.0194599
702	0.038602
714	0.0169182
726	0.021525
738	0.117712
750	0.740746
762	0.31938
774	0.0438443
786	0.0325655
798	0.0350277
810	0.240826
822	0.419618
834	0.0764097
846	0.0203336
858	0.0245433
870	0.0574264
882	0.0642573
894	0.135504
906	0.317712
918	0.093169
930	0.0278792
942	0.0266878
954	0.034154
966	0.0569499
978	0.149563
990	0.161159
1002	0.0445591
1014	0.0435265
1026	0.117951
1038	0.0694995
1050	0.0285941
1062	0.0282764
1074	0.0273232
1086	0.0197776
1098	0.0299444
1110	0.109452
1122	0.0469419
1134	0.0234313
1146	0.0203336
1158	0.0741063
1170	0.0486894
1182	0.0463065
1194	0.126767
1206	0.101191
1218	0.0638601
1230	0.0736298
1242	0.0359015
1254	0.0848291
1266	0.124543
1278	0.0459094
1290	0.0242255
1302	0.0235901
1314	0.0268467
1326	0.0356632
1338	0.0291501
1350	0.0277204
1362	0.0883239
1374	0.307148
1386	0.297776
1398	0.0989673
1410	0.0674344
1422	0.0791103
1434	0.0411437
1446	0.0903891
1458	0.100715
1470	0.0591739
1482	0.0378077
1494	0.0633041
1506	0.12359
1518	0.073312
1530	0.0244638
1542	0.0181096
1554	0.0464654
1566	0.141461
1578	0.0768069
1590	0.103654
1602	0.108102
1614	0.0498808
1626	0.039158
1638	0.0470214
1650	0.0222398
1662	0
1674	0.0145353
1686	0.0127879
1698	0.03471
1710	0.0295472
1722	0.0162827
1734	0.0166799
1746	0.0312946
1758	0.0116759
1770	0.00889594
1782	0.00905479
1794	0.0201747
1806	0.0264495
1818	0.0179507
1830	0.0329626
1842	0.0334392
1854	0.0477362
1866	0.0126291
1878	0.00325655
1890	0.00754566
1902	0.0119142
1914	0.0123908
1926	0.0235107
1938	0.014297
1950	0.0197776
1962	0.00691024
1974	0.00182684
1986	0.00158856
1998	0.00111199
2010	0.0019857
2022	0.00135028
2034	0.0014297
2046	0.00150913
2058	0.00190627
2070	0.0014297
2082	0.00214456
2094	0.0019857
2106	0.000953136
2118	0.000714852
2130	0.000635424
2142	0.00039714
2154	0
2166	0.000873708
2178	0.000714852
2190	0.00103256
2202	7.9428e-05
2214	0.000317712
2226	0.000873708
2238	0.00182684
2250	0.00230341
2262	0.00293884
2274	0.00270055
2286	0.00222398
2298	0.00333598
2310	0.00611596
2322	0.00969022
2334	0.0093725
2346	0.0186656
2358	0.00953136
2370	0.0111199
2382	0.00619538
2394	0.00563939
2406	0.00754566
2418	0.00730738
2430	0.00532168
2442	0.0054011
2454	0.00468625
2466	0.00516282
2478	0.0073868
2490	0.00675138
2502	0.00548053
2514	0.00524225
2526	0.0054011
2538	0.0059571
2550	0.00587767
2562	0.00691024
2574	0.00714852
2586	0.00698966
2598	0.00675138
2610	0.00857822
2622	0.00873708
2634	0.00698966
2646	0.00667195
2658	0.00691024
2670	0.00770452
2682	0.0073868
2694	0.00714852
2706	0.00786337
2718	0.00889594
2730	0.0115965
2742	0.0160445
2754	0.018745
2766	0.0128673
2778	0.0122319
2790	0.0138999
2802	0.0154885
2814	0.0171564
2826	0.0200953
2838	0.0222398
2850	0.0287529
2862	0.0484511
2874	0.0956313
2886	0.0881651
2898	0.076092
2910	0.101191
2922	0.119777
2934	0.180858
2946	0.17776
2958	0.161159
2970	0.137172
2982	0.154329
2994	0.117792
3006	0.0778394
3018	0.098173
3030	0.145512
3042	0.171326
3054	0.171247
3066	0.137172
3078	0.262668
3090	0.303336
3102	0.108499
3114	0.0401111
3126	0.0293884
3138	0.0264495
3150	0.0216044
3162	0.0197776
3174	0.0183479
3186	0.0178713
3198	0.0167593
3210	0.0184273
3222	0.0173153
3234	0.0150913
3246	0.0152502
3258	0.0147736
3270	0.0144559
3282	0.014297
3294	0.0135822
3306	0.0144559
3318	0.013741
3330	0.0127879
3342	0.0138205
3354	0.014297
3366	0.014297
3378	0.0138205
3390	0.0136616
3402	0.0139793
3414	0.0151707
3426	0.014297
3438	0.0150119
3450	0.0132645
3462	0.0135028
3474	0.0157267
3486	0.0136616
3498	0.015409
3510	0.0122319
3522	0.0149325
3534	0.0152502
3546	0.0162827
3558	0.0114376
3570	0.0169182
3582	0.0154885
3594	0.0152502
3606	0.0200953
3618	0.0140588
3630	0.0212073
3642	0.013185
3654	0.0200953
3666	0.0251787
3678	0.00317712
3690	0.0144559
3702	0.0217633
3714	0.018745
3726	0.00873708
3738	0.00841937
3750	0.0356632
3762	0.0142176
3774	0.0128673
3786	0.0171564
3798	0.0234313
3810	0.0216044
3822	0.0135822
3834	0.0253375
3846	0.0317712
3858	0.0101668
3870	0.0156473
3882	0.0258141
3894	0.0161239
3906	0.0172359
3918	0.0232724
3930	0.0162827
3942	0.0180302
3954	0.0250198
3966	0.0256552
