Infrared Spectrum: Cyclohexanone, 2-(2-ethylhexylidene)-,
Formula: C 14 H 24 O
CAS: 6628-38-2
Origin: Sadtler Research Labs Under US-EPA Contract
1/CM	ABSORBANCE
450	0.0122206
462	0.0190559
474	0.00849229
486	0.0178821
498	0.0024165
510	0.0137396
522	0.00635196
534	0.0220938
546	0.00573057
558	0.00897559
570	0.0049711
582	0.00731856
594	0.00752569
606	0.00421162
618	0.0132563
630	0.00649004
642	0.0116683
654	0.0069043
666	0.0136705
678	0.00683526
690	0.0131872
702	0.00856133
714	0.0175369
726	0.016087
738	0.0158108
750	0.0137396
762	0.0178131
774	0.0182274
786	0.0169155
798	0.0201606
810	0.0227842
822	0.0278934
834	0.0169155
846	0.0225771
858	0.0210581
870	0.0313455
882	0.0244412
894	0.0306551
906	0.0212652
918	0.0238889
930	0.0255459
942	0.0232675
954	0.0265125
966	0.0260983
978	0.0207129
990	0.0135324
1002	0.0152585
1014	0.0140157
1026	0.0232675
1038	0.0197463
1050	0.0289981
1062	0.0389403
1074	0.0410115
1086	0.0291361
1098	0.0381808
1110	0.0528179
1122	0.0863728
1134	0.102253
1146	0.0575128
1158	0.0319669
1170	0.0216105
1182	0.0229223
1194	0.0204367
1206	0.0315527
1218	0.0375594
1230	0.0575128
1242	0.0516442
1254	0.0455684
1266	0.0500562
1278	0.0499181
1290	0.0408044
1302	0.0451541
1314	0.0563391
1326	0.0371451
1338	0.0415639
1350	0.0362476
1362	0.0367309
1374	0.0345905
1386	0.0470873
1398	0.0205058
1410	0.0200915
1422	0.0298266
1434	0.0393545
1446	0.0649004
1458	0.0896869
1470	0.0824373
1482	0.027272
1494	0.0158108
1506	0.00793995
1518	0.0111159
1530	0.00676621
1542	0.00669717
1554	0.00504014
1566	0.00814707
1578	0.00676621
1590	0.0123587
1602	0.01443
1614	0.0307932
1626	0.0781567
1638	0.0522656
1650	0.0199534
1662	0.0178821
1674	0.0234746
1686	0.0379736
1698	0.100389
1710	0.170605
1722	0.197808
1734	0.157142
1746	0.0506085
1758	0.0275482
1770	0.024165
1782	0.0165013
1794	0.0104255
1806	0.0073876
1818	0.00655908
1830	0.00517822
1842	0.00434971
1854	0.00524727
1866	0.00490205
1878	0.0044878
1890	0.00276172
1902	0.00510918
1914	0.00317598
1926	0.00504014
1938	0.00386641
1950	0.00407354
1962	0.00400449
1974	0.00262363
1986	0.00428067
1998	0.00172607
2010	0.00490205
2022	0.00338311
2034	0.00400449
2046	0.00331406
2058	0.00359024
2070	0.00289981
2082	0.00476397
2094	0.00407354
2106	0.00386641
2118	0.00345215
2130	0.00559248
2142	0.00338311
2154	0.0044878
2166	0.0044878
2178	0.00407354
2190	0.0044878
2202	0.00296885
2214	0.00483301
2226	0.00289981
2238	0.00476397
2250	0.00234746
2262	0.00428067
2274	0.00303789
2286	0.00469492
2298	0.00227842
2310	0.00331406
2322	0.0024165
2334	0.00345215
2346	0.00365928
2358	0.00393545
2370	0.00918272
2382	0.00614483
2394	0.00531631
2406	0.00393545
2418	0.0054544
2430	0.00331406
2442	0.00476397
2454	0.00310693
2466	0.00400449
2478	0.00255459
2490	0.0044878
2502	0.00428067
2514	0.00531631
2526	0.00531631
2538	0.00531631
2550	0.006421
2562	0.00552344
2574	0.0073876
2586	0.00662813
2598	0.00773282
2610	0.00573057
2622	0.00759473
2634	0.00655908
2646	0.00897559
2658	0.00828516
2670	0.0113231
2682	0.0101493
2694	0.00918272
2706	0.00890655
2718	0.00925176
2730	0.0104255
2742	0.0116683
2754	0.0129801
2766	0.0109778
2778	0.0154656
2790	0.014499
2802	0.0210581
2814	0.0228532
2826	0.0307241
2838	0.0437042
2850	0.0897559
2862	0.197118
2874	0.282317
2886	0.233434
2898	0.176474
2910	0.21569
2922	0.341901
2934	0.610616
2946	0.633884
2958	0.394719
2970	0.485165
2982	0.207336
2994	0.0694573
3006	0.044947
3018	0.0303789
3030	0.025615
3042	0.0189868
3054	0.0159489
3066	0.0127039
3078	0.00973506
3090	0.0108398
3102	0.00711143
3114	0.00869942
3126	0.00614483
3138	0.0100803
3150	0.00504014
3162	0.0078709
3174	0.0059377
3186	0.00759473
3198	0.00552344
3210	0.00676621
3222	0.00476397
3234	0.00573057
3246	0.00421162
3258	0.00386641
3270	0.00469492
3282	0.00276172
3294	0.0049711
3306	0.0019332
3318	0.00780186
3330	0.00365928
3342	0.00566153
3354	0.00469492
3366	0.00807803
3378	0.0049711
3390	0.0078709
3402	0.0059377
3414	0.00745664
3426	0.00773282
3438	0.00579961
3450	0.00649004
3462	0.00524727
3474	0.0054544
3486	0.00214033
3498	0.0069043
3510	0.00255459
3522	0.00566153
3534	0.00372832
3546	0.00718047
3558	0.0049711
3570	0.0083542
3582	0.00731856
3594	0.00724951
3606	0.00807803
3618	0.006421
3630	0.0088375
3642	0.00752569
3654	0.00904463
3666	0.00614483
3678	0.00807803
3690	0.00483301
3702	0.00614483
3714	0.00393545
3726	0.00655908
3738	0.00531631
3750	0.00731856
3762	0.00745664
3774	0.00945889
3786	0.00869942
3798	0.00980411
3810	0.0113921
3822	0.0100112
3834	0.0101493
3846	0.00904463
3858	0.0140848
3870	0.00966602
3882	0.0109088
3894	0.00731856
3906	0.00973506
3918	0.00600674
3930	0.0083542
3942	0.00718047
3954	0.000552344
3966	0.00117373
