Infrared Spectrum: 2,4-Nonanediol, 5-ethyl-3-methyl-
Formula: C 12 H 26 O 2
CAS: 6628-31-5
Origin: Sadtler Research Labs Under US-EPA Contract
1/CM	ABSORBANCE
450	0
462	0.0154905
474	0.0295727
486	0.0248064
498	0.025673
510	0.0202568
522	0.0224233
534	0.021665
546	0.0239398
558	0.0191735
570	0.0207984
582	0.0175486
594	0.0237232
606	0.0153822
618	0.0200401
630	0.0186319
642	0.0237232
654	0.022315
666	0.0265396
678	0.0163571
690	0.0238315
702	0.0147322
714	0.0217733
726	0.0255647
738	0.0123491
750	0.0313059
762	0.0329308
774	0.039647
786	0.0440883
798	0.0314142
810	0.0348806
822	0.0367222
834	0.047338
846	0.0502628
858	0.0463631
870	0.0415968
882	0.0426801
894	0.0480963
906	0.056654
918	0.0647783
930	0.0721444
942	0.0722528
954	0.0815687
966	0.0998757
978	0.106592
990	0.130098
1002	0.147647
1014	0.169312
1026	0.16812
1038	0.146455
1050	0.135731
1062	0.146997
1074	0.156096
1086	0.160104
1098	0.166929
1110	0.170395
1122	0.164762
1134	0.154255
1146	0.136381
1158	0.106159
1170	0.0816771
1182	0.0827603
1194	0.0903431
1206	0.0955427
1218	0.0990091
1230	0.106159
1242	0.112875
1254	0.118616
1266	0.120132
1278	0.117316
1290	0.112116
1302	0.106917
1314	0.0987924
1326	0.0934845
1338	0.0898014
1350	0.0987924
1362	0.113525
1374	0.14808
1386	0.212967
1398	0.157938
1410	0.13389
1422	0.110492
1434	0.0855768
1446	0.0997673
1458	0.166929
1470	0.189677
1482	0.0841685
1494	0.0440883
1506	0.0320642
1518	0.0222066
1530	0.0186319
1542	0.0252397
1554	0.0181986
1566	0.0148405
1578	0.0147322
1590	0.012674
1602	0.0159238
1614	0.0123491
1626	0.0118074
1638	0.0146239
1650	0.0145156
1662	0.0125657
1674	0.0103992
1686	0.0153822
1698	0.013324
1710	0.0112658
1722	0.0148405
1734	0.0150572
1746	0.0115908
1758	0.0112658
1770	0.0115908
1782	0.0095326
1794	0.0082327
1806	0.00855768
1818	0.00834103
1830	0.00660783
1842	0.00725778
1854	0.00714945
1866	0.00758275
1878	0.00660783
1890	0.00769108
1902	0.0069328
1914	0.00790773
1926	0.00682447
1938	0.00671615
1950	0.00682447
1962	0.00714945
1974	0.0064995
1986	0.00595788
1998	0.00617453
2010	0.0060662
2022	0.00574122
2034	0.0060662
2046	0.00628285
2058	0.00617453
2070	0.00628285
2082	0.00584955
2094	0.00584955
2106	0.00541625
2118	0.00530792
2130	0.00541625
2142	0.0051996
2154	0.00541625
2166	0.0056329
2178	0.00541625
2190	0.00509128
2202	0.00487463
2214	0.00498295
2226	0.00509128
2238	0.00530792
2250	0.00530792
2262	0.00574122
2274	0.00465797
2286	0.0051996
2298	0.00411635
2310	0.00444133
2322	0.0060662
2334	0.00639117
2346	0.00411635
2358	0.00812437
2370	0.00498295
2382	0.0056329
2394	0.00714945
2406	0.00769108
2418	0.00758275
2430	0.00682447
2442	0.00671615
2454	0.00639117
2466	0.00660783
2478	0.00660783
2490	0.0060662
2502	0.00617453
2514	0.00704113
2526	0.00725778
2538	0.00812437
2550	0.00877432
2562	0.00964092
2574	0.0108325
2586	0.0121324
2598	0.0134323
2610	0.0146239
2622	0.0150572
2634	0.0157071
2646	0.0165737
2658	0.0180903
2670	0.0189569
2682	0.0210151
2694	0.02134
2706	0.0217733
2718	0.0226399
2730	0.0251314
2742	0.0304393
2754	0.0296811
2766	0.0293561
2778	0.0326058
2790	0.0385637
2802	0.0467964
2814	0.056004
2826	0.0712779
2838	0.0998757
2850	0.158155
2862	0.307968
2874	0.476738
2886	0.572606
2898	0.446949
2910	0.473164
2922	0.678656
2934	0.936036
2946	0.903322
2958	0.707037
2970	1.08325
2982	0.580947
2994	0.218167
3006	0.103775
3018	0.0658616
3030	0.047988
3042	0.0373721
3054	0.0304393
3066	0.0267563
3078	0.0249147
3090	0.0224233
3102	0.0204734
3114	0.0177653
3126	0.0162487
3138	0.0149489
3150	0.0136489
3162	0.0131073
3174	0.0124574
3186	0.0112658
3198	0.0103992
3210	0.00812437
3222	0.00682447
3234	0.0060662
3246	0.00530792
3258	0.0051996
3270	0.00498295
3282	0.00487463
3294	0.00465797
3306	0.00454965
3318	0.00541625
3330	0.00541625
3342	0.0051996
3354	0.00509128
3366	0.00552458
3378	0.00595788
3390	0.0064995
3402	0.0073661
3414	0.00704113
3426	0.00747443
3438	0.00769108
3450	0.00899098
3462	0.0095326
3474	0.00964092
3486	0.0111575
3498	0.0121324
3510	0.0139739
3522	0.0165737
3534	0.0214484
3546	0.0328225
3558	0.0594704
3570	0.101934
3582	0.15783
3594	0.131398
3606	0.0746359
3618	0.0545958
3630	0.0480963
3642	0.0562207
3654	0.0842769
3666	0.0558957
3678	0.0287061
3690	0.0134323
3702	0.0111575
3714	0.00931595
3726	0.00769108
3738	0.0105075
3750	0.00530792
3762	0.00942428
3774	0.00877432
3786	0.00758275
3798	0.004333
3810	0.00888265
3822	0.0108325
3834	0.00964092
3846	0.0051996
3858	0.00931595
3870	0.0114824
3882	0.0073661
3894	0.0123491
3906	0.00855768
3918	0.0077994
3930	0.0099659
3942	0.00974925
3954	0.00834103
3966	0.00682447
