Infrared Spectrum: Cyclohexanol, 2-chloro-, trans-
Formula: C 6 H 11 Cl O
CAS: 6628-80-4
Origin: Sadtler Research Labs Under US-EPA Contract
1/CM	ABSORBANCE
450	0.0133253
462	0.0221335
474	0.0285326
486	0.00888351
498	0.000602272
510	0.00383948
522	0.00782954
534	0.0119702
546	0.0231122
558	0.0276292
570	0.0211548
582	0.00978692
594	0.006098
606	0.0075284
618	0.0120454
630	0.00722726
642	0.00737783
654	0.0098622
666	0.0103139
678	0.00828124
690	0.014304
702	0.0285326
714	0.0338778
726	0.0719715
738	0.131898
750	0.0849204
762	0.0158096
774	0.0126477
786	0.0288338
798	0.0551832
810	0.031017
822	0.00873294
834	0.0228111
846	0.0311676
858	0.0265753
870	0.0283068
882	0.0170895
894	0.0216818
906	0.0219076
918	0.0162613
930	0.018294
942	0.0420838
954	0.119852
966	0.123842
978	0.0523224
990	0.0307159
1002	0.0298877
1014	0.0405781
1026	0.068132
1038	0.0953095
1050	0.0676803
1062	0.0709175
1074	0.170594
1086	0.248287
1098	0.137469
1110	0.0515695
1122	0.0718209
1134	0.0584204
1146	0.0292102
1158	0.0244673
1170	0.0176917
1182	0.0197244
1194	0.0307159
1206	0.0712939
1218	0.137167
1230	0.160505
1242	0.0998266
1254	0.0745312
1266	0.111646
1278	0.100655
1290	0.0522471
1302	0.0292855
1314	0.0287585
1326	0.0383196
1338	0.0391477
1350	0.0438906
1362	0.0948578
1374	0.120906
1386	0.0504403
1398	0.0210042
1410	0.0107656
1422	0.0109915
1434	0.0243167
1446	0.0752087
1458	0.120379
1470	0.0617329
1482	0.0152074
1494	0.0051946
1506	0.00534516
1518	0.00286079
1530	0.0014304
1542	0.00120454
1554	0.00225852
1566	0.00150568
1578	0.00203267
1590	0.00255966
1602	0.0023338
1614	0.00203267
1626	0.000677556
1638	0.00271022
1650	0.00127983
1662	0.00135511
1674	0.000150568
1686	0.00127983
1698	0.00150568
1710	0.00308664
1722	0.00391477
1734	0.00496874
1746	0.0103139
1758	0.0266505
1770	0.0281562
1782	0.0134758
1794	0.0101633
1806	0.00843181
1818	0.00451704
1830	0.00173153
1842	0.00037642
1854	0.00120454
1866	0.000451704
1878	0.00120454
1890	0.00112926
1902	0.000526988
1914	0.00075284
1926	0.00127983
1938	0.00127983
1950	0.000828124
1962	0.00112926
1974	0.000978692
1986	0.00127983
1998	0.00120454
2010	0.00105398
2022	0.0014304
2034	0.00158096
2046	0.000978692
2058	0.000451704
2070	0
2082	0.000451704
2094	0.00112926
2106	0.00135511
2118	0.0014304
2130	0.00158096
2142	0.00150568
2154	0.00286079
2166	0.0023338
2178	0.00203267
2190	0.0014304
2202	0.00195738
2214	0.00150568
2226	0.00158096
2238	0.00195738
2250	0.0018821
2262	0.00158096
2274	0.00105398
2286	0.00105398
2298	0.00165625
2310	0.00225852
2322	0.00301136
2334	0.00278551
2346	0.00248437
2358	0.00218324
2370	0.00346306
2382	0.00301136
2394	0.00240909
2406	0.0014304
2418	0.00135511
2430	0.000677556
2442	0.00075284
2454	0.000978692
2466	0.00150568
2478	0.0014304
2490	0.00158096
2502	0.00165625
2514	0.00158096
2526	0.00158096
2538	0.00173153
2550	0.00218324
2562	0.00218324
2574	0.00135511
2586	0.00165625
2598	0.0023338
2610	0.00278551
2622	0.00240909
2634	0.00286079
2646	0.00444176
2658	0.00654971
2670	0.00602272
2682	0.006098
2694	0.00496874
2706	0.00383948
2718	0.00459232
2730	0.00308664
2742	0.00271022
2754	0.0033125
2766	0.00323721
2778	0.00323721
2790	0.00647442
2802	0.00813067
2814	0.00948578
2826	0.0109915
2838	0.0130241
2850	0.0301889
2862	0.137469
2874	0.290822
2886	0.183317
2898	0.0695624
2910	0.0622599
2922	0.118949
2934	0.280734
2946	0.641344
2958	0.699087
2970	0.247684
2982	0.0465255
2994	0.011669
3006	0.00481818
3018	0.00278551
3030	0.00248437
3042	0.00391477
3054	0.00587215
3066	0.006098
3078	0.00391477
3090	0.00218324
3102	0.00240909
3114	0.00353835
3126	0.00451704
3138	0.00481818
3150	0.00481818
3162	0.00361363
3174	0.00120454
3186	0.00173153
3198	0.0018821
3210	0.00225852
3222	0.0023338
3234	0.00278551
3246	0.0033125
3258	0.00549573
3270	0.00451704
3282	0.00301136
3294	0.00173153
3306	0.00180682
3318	0.00316193
3330	0.00203267
3342	0.000978692
3354	0.00120454
3366	0.00158096
3378	0.00218324
3390	0.00286079
3402	0.00368892
3414	0.00293608
3426	0.0018821
3438	0.00218324
3450	0.00120454
3462	0.00112926
3474	0.00173153
3486	0.00271022
3498	0.00301136
3510	0.00346306
3522	0.00158096
3534	0.00135511
3546	0.00225852
3558	0.00218324
3570	0.00346306
3582	0.00474289
3594	0.00632386
3606	0.0362116
3618	0.111345
3630	0.0802527
3642	0.0282315
3654	0.0191221
3666	0.0123466
3678	0.00459232
3690	0.00165625
3702	0.00301136
3714	0.0033125
3726	0.0023338
3738	0.00135511
3750	0.00135511
3762	0.00278551
3774	0.00248437
3786	0.00286079
3798	0.00383948
3810	0.00526988
3822	0.006098
3834	0.00429119
3846	0.00444176
3858	0.00203267
3870	0.0014304
3882	0.0014304
3894	0.00361363
3906	0.00406534
3918	0.00496874
3930	0.00451704
3942	0.00496874
3954	0.00444176
3966	0.0042159
