Infrared Spectrum: 2-Allyl-4-methylphenol
Formula: C 10 H 12 O
CAS: 6628-06-4
Origin: Sadtler Research Labs Under US-EPA Contract
1/CM	ABSORBANCE
450	0.0104069
462	0.0103446
474	0.0136474
486	0.0296629
498	0.0180096
510	0.00729109
522	0.0108432
534	0.0223095
546	0.0468001
558	0.0628155
570	0.0327787
582	0.0107808
594	0.0058578
606	0.00448682
618	0.00535926
630	0.00542158
642	0.0099084
654	0.0254253
666	0.0131489
678	0.00274195
690	0.00174488
702	0.00174488
714	0.00965914
726	0.011591
738	0.0278557
750	0.0435596
762	0.0396959
774	0.0580794
786	0.0686733
798	0.144326
810	0.158534
822	0.102325
834	0.0268586
846	0.0211255
858	0.0411292
870	0.0405684
882	0.0345859
894	0.059949
906	0.170686
918	0.255998
930	0.137471
942	0.0566462
954	0.0334642
966	0.0305353
978	0.0478595
990	0.116533
1002	0.121207
1014	0.0370163
1026	0.0205023
1038	0.0234312
1050	0.0307846
1062	0.0340251
1074	0.0506014
1086	0.0835671
1098	0.105503
1110	0.114913
1122	0.0924784
1134	0.0770238
1146	0.0997695
1158	0.113168
1170	0.278619
1182	0.533932
1194	0.387051
1206	0.209946
1218	0.154608
1230	0.207516
1242	0.289276
1254	0.343367
1266	0.377018
1278	0.145199
1290	0.0843149
1302	0.0801397
1314	0.146757
1326	0.152116
1338	0.0643735
1350	0.0256123
1362	0.0220602
1374	0.0219979
1386	0.0314078
1398	0.0370163
1410	0.0658691
1422	0.0973392
1434	0.136163
1446	0.115286
1458	0.061133
1470	0.0994579
1482	0.202281
1494	0.339254
1506	0.62317
1518	0.288154
1530	0.0590765
1542	0.0155793
1554	0.0199414
1566	0.0148314
1578	0.0165763
1590	0.0398206
1602	0.0470493
1614	0.0514738
1626	0.0680502
1638	0.130679
1650	0.0676763
1662	0.015143
1674	0.0124634
1686	0.0029289
1698	0.00486073
1710	0.00529695
1722	0.00785194
1734	0.0123388
1746	0.0120272
1758	0.010033
1770	0.00685487
1782	0.00429987
1794	0.00355207
1806	0.00959682
1818	0.0145199
1830	0.0200038
1842	0.0246152
1854	0.0188821
1866	0.012588
1878	0.0113417
1890	0.00741572
1902	0.0033028
1914	0.00342744
1926	0.00186951
1938	0.00274195
1950	0.00205646
1962	0.0033028
1974	0.00542158
1986	0.00573316
1998	0.00486073
2010	0.00423756
2022	0.00411292
2034	0.00498536
2046	0.00535926
2058	0.00467378
2070	0.00529695
2082	0.00498536
2094	0.0036767
2106	0.00205646
2118	0.00193183
2130	0.00118402
2142	0.00162024
2154	0.00143329
2166	0.000747804
2178	0.00149561
2190	0.00199414
2202	0.00137097
2214	0.00162024
2226	0.00199414
2238	0.00199414
2250	0.00261731
2262	0.00317817
2274	0.00386365
2286	0.00504768
2298	0.00567085
2310	0.00791426
2322	0.00716646
2334	0.00392597
2346	0.00560853
2358	0.00810121
2370	0.00392597
2382	0.00510999
2394	0.00592012
2406	0.00635633
2418	0.00673024
2430	0.0069795
2442	0.00641865
2454	0.00641865
2466	0.00648097
2478	0.00797658
2490	0.00835048
2502	0.00897365
2514	0.00891133
2526	0.00760267
2538	0.00604475
2550	0.00517231
2562	0.00560853
2574	0.00517231
2586	0.00498536
2598	0.00386365
2610	0.00286658
2622	0.00380134
2634	0.00448682
2646	0.00429987
2658	0.00392597
2670	0.00473609
2682	0.0062317
2694	0.00629402
2706	0.00679255
2718	0.00760267
2730	0.0106562
2742	0.0171995
2754	0.0142706
2766	0.0087867
2778	0.00822584
2790	0.00822584
2802	0.0106562
2814	0.0157039
2826	0.0236181
2838	0.045803
2850	0.0701689
2862	0.0889264
2874	0.135539
2886	0.134231
2898	0.127625
2910	0.172618
2922	0.246401
2934	0.285474
2946	0.173491
2958	0.0988971
2970	0.0787687
2982	0.125133
2994	0.145261
3006	0.181779
3018	0.276874
3030	0.19069
3042	0.146507
3054	0.122017
3066	0.112108
3078	0.106936
3090	0.161713
3102	0.0656198
3114	0.0225588
3126	0.0173241
3138	0.0122764
3150	0.00716646
3162	0.00504768
3174	0.00392597
3186	0.00386365
3198	0.00299122
3210	0.00299122
3222	0.00249268
3234	0.00355207
3246	0.00398829
3258	0.00355207
3270	0.0033028
3282	0.00348975
3294	0.00149561
3306	0.00205646
3318	0.00317817
3330	0.00461146
3342	0.00342744
3354	0.00442451
3366	0.00598243
3378	0.00598243
3390	0.00691719
3402	0.00604475
3414	0.00442451
3426	0.00604475
3438	0.00635633
3450	0.00436219
3462	0.00554621
3474	0.00729109
3486	0.00766499
3498	0.00716646
3510	0.00828816
3522	0.0121518
3534	0.0227457
3546	0.0332773
3558	0.0437465
3570	0.0615069
3582	0.133296
3594	0.204088
3606	0.198667
3618	0.119586
3630	0.0594504
3642	0.0925407
3654	0.203153
3666	0.119275
3678	0.0187574
3690	0.00361439
3702	0.00236805
3714	0.00149561
3726	0.00162024
3738	0
3750	6.2317e-05
3762	0.00348975
3774	0.00423756
3786	0.00529695
3798	0.00535926
3810	0.00454914
3822	0.00486073
3834	0.00461146
3846	0.00542158
3858	0.00274195
3870	0.00236805
3882	0.000436219
3894	6.2317e-05
3906	0.000373902
3918	0.00162024
3930	0.00405061
3942	0.0029289
3954	0.00411292
3966	0.00504768
