Infrared Spectrum: Benzene, 1-(1,1-dimethylethyl)-3-ethyl-5-methyl-
Formula: C 13 H 20
CAS: 6630-01-9
Origin: Sadtler Research Labs Under US-EPA Contract
1/CM	ABSORBANCE
450	0.047798
462	0.0134563
474	0.0028034
486	0.00883071
498	0.00869054
510	0.00883071
522	0.0186426
534	0.013176
546	0.00897088
558	0.00869054
570	0.0070085
582	0.00644782
594	0.00686833
606	0.00630765
618	0.00686833
630	0.00602731
642	0.00616748
654	0.00827003
666	0.00812986
678	0.00967173
690	0.0169606
702	0.0916712
714	0.108071
726	0.0138768
738	0.00939139
750	0.00855037
762	0.00827003
774	0.0084102
786	0.00827003
798	0.0084102
810	0.00798969
822	0.00798969
834	0.0120546
846	0.0665808
858	0.196378
870	0.0504612
882	0.0734491
894	0.0555073
906	0.0211657
918	0.0484988
930	0.0405091
942	0.014858
954	0.0105128
966	0.00897088
978	0.0120546
990	0.0120546
1002	0.0133162
1014	0.0141572
1026	0.0128956
1038	0.0159794
1050	0.019764
1062	0.0295759
1074	0.0215862
1086	0.0113538
1098	0.00925122
1110	0.00827003
1122	0.00855037
1134	0.00812986
1146	0.00925122
1158	0.0098119
1170	0.0142973
1182	0.0158392
1194	0.0305571
1206	0.0588714
1218	0.0834012
1230	0.130078
1242	0.0361639
1254	0.0199041
1266	0.0196238
1278	0.0330801
1290	0.0902695
1302	0.0606936
1314	0.0276135
1326	0.029716
1338	0.0309776
1350	0.0399485
1362	0.10723
1374	0.138908
1386	0.0745704
1398	0.08242
1410	0.0405091
1422	0.0539655
1434	0.0894285
1446	0.115921
1458	0.171148
1470	0.171568
1482	0.186286
1494	0.100642
1506	0.0549466
1518	0.0417707
1530	0.0396681
1542	0.0350425
1554	0.0264921
1566	0.0292955
1578	0.0528441
1590	0.133442
1602	0.380702
1614	0.18124
1626	0.0340613
1638	0.014017
1650	0.0105128
1662	0.00812986
1674	0.00798969
1686	0.00784952
1698	0.00911105
1710	0.00925122
1722	0.00925122
1734	0.0213058
1746	0.0239691
1758	0.0179418
1770	0.0227075
1782	0.0112136
1794	0.00532646
1806	0.00462561
1818	0.00378459
1830	0.00406493
1842	0.00378459
1854	0.00392476
1866	0.00392476
1878	0.00350425
1890	0.00406493
1902	0.0042051
1914	0.00490595
1926	0.0042051
1938	0.00504612
1950	0.0042051
1962	0.00266323
1974	0.00238289
1986	0.00252306
1998	0.00196238
2010	0.00154187
2022	0.00238289
2034	0.00210255
2046	0.0014017
2058	0.00126153
2070	0.00112136
2082	0.0014017
2094	0.00168204
2106	0.0014017
2118	0.00154187
2130	0.0014017
2142	0.00238289
2154	0.00322391
2166	0.00308374
2178	0.00252306
2190	0.00182221
2202	0.00168204
2214	0.0014017
2226	0.00168204
2238	0.00210255
2250	0.00196238
2262	0.00210255
2274	0.00224272
2286	0.0028034
2298	0.00630765
2310	0.00686833
2322	0.00616748
2334	0.00504612
2346	0.00294357
2358	0.00897088
2370	0.00266323
2382	0.00364442
2394	0.00434527
2406	0.00378459
2418	0.00294357
2430	0.0028034
2442	0.00336408
2454	0.00210255
2466	0.00210255
2478	0.00210255
2490	0.00210255
2502	0.00266323
2514	0.00210255
2526	0.00224272
2538	0.0028034
2550	0.00322391
2562	0.00308374
2574	0.00336408
2586	0.00294357
2598	0.0042051
2610	0.00462561
2622	0.00322391
2634	0.0042051
2646	0.00518629
2658	0.00658799
2670	0.0070085
2682	0.00658799
2694	0.00546663
2706	0.0070085
2718	0.00995207
2730	0.0145777
2742	0.0194836
2754	0.0145777
2766	0.0121948
2778	0.0130358
2790	0.0165401
2802	0.0173811
2814	0.0239691
2826	0.0323793
2838	0.0490595
2850	0.0754115
2862	0.178156
2874	0.351687
2886	0.376917
2898	0.335987
2910	0.403269
2922	0.454711
2934	0.532366
2946	0.56082
2958	0.837095
2970	1.4017
2982	0.698888
2994	0.216703
3006	0.156009
3018	0.161476
3030	0.167783
3042	0.137927
3054	0.118023
3066	0.0925122
3078	0.0542458
3090	0.0273332
3102	0.018923
3114	0.0151384
3126	0.0134563
3138	0.013176
3150	0.0110734
3162	0.0110734
3174	0.0130358
3186	0.0133162
3198	0.0120546
3210	0.0121948
3222	0.0109333
3234	0.0102324
3246	0.00869054
3258	0.00812986
3270	0.00728884
3282	0.00630765
3294	0.00630765
3306	0.00406493
3318	0.00336408
3330	0.00406493
3342	0.00350425
3354	0.00392476
3366	0.00434527
3378	0.00434527
3390	0.00322391
3402	0.00252306
3414	0.00350425
3426	0.00336408
3438	0.00154187
3450	0.0028034
3462	0.00266323
3474	0.00294357
3486	0.00308374
3498	0.00294357
3510	0.00350425
3522	0.00294357
3534	0.00294357
3546	0.00224272
3558	0.00308374
3570	0.00196238
3582	0.00266323
3594	0.00210255
3606	0.00266323
3618	0.00434527
3630	0.00238289
3642	0.00350425
3654	0.0014017
3666	0.00210255
3678	0.00294357
3690	0.00252306
3702	0.00112136
3714	0.00476578
3726	0.00392476
3738	0.00168204
3750	0.00168204
3762	0.00308374
3774	0.00154187
3786	0.00112136
3798	0.00322391
3810	0.00448544
3822	0.00574697
3834	0.0028034
3846	0.00266323
3858	0.00168204
3870	0.00448544
3882	0.00308374
3894	0.00630765
3906	0.00658799
3918	0.00378459
3930	0.00644782
3942	0.00672816
3954	0.00336408
3966	0.00434527
