Infrared Spectrum: Benzaldehyde, 2-bromo-
Formula: C 7 H 5 Br O
CAS: 6630-33-7
Origin: Sadtler Research Labs Under US-EPA Contract
1/CM	ABSORBANCE
450	0.0450453
462	0.0319727
474	0.0335477
486	0.0359102
498	0.0261452
510	0.0184276
522	0.0214201
534	0.0211051
546	0.0229951
558	0.0240977
570	0.0291377
582	0.0259877
594	0.0244127
606	0.0245702
618	0.0338627
630	0.0951306
642	0.078908
654	0.0247277
666	0.0222076
678	0.0467778
690	0.112928
702	0.0492978
714	0.0148051
726	0.0275627
738	0.153563
750	0.537866
762	0.271532
774	0.0376427
786	0.0168526
798	0.0233101
810	0.106156
822	0.242867
834	0.111826
846	0.0371702
858	0.0240977
870	0.0154351
882	0.00441003
894	0.00126001
906	0.00173251
918	0.00126001
930	0.00126001
942	0.00456753
954	0.0119701
966	0.0143326
978	0.0103951
990	0.0189001
1002	0.0420528
1014	0.076388
1026	0.224281
1038	0.248852
1050	0.181441
1062	0.0267752
1074	0.0148051
1086	0.0195301
1098	0.0263027
1110	0.0535503
1122	0.0371702
1134	0.0185851
1146	0.0168526
1158	0.0442578
1170	0.0532353
1182	0.126316
1194	0.338942
1206	0.210264
1218	0.0355952
1230	0.0366977
1242	0.0292952
1254	0.108361
1266	0.294684
1278	0.110566
1290	0.0551253
1302	0.0211051
1314	0.00740255
1326	0.00582754
1338	0.0108676
1350	0.0127576
1362	0.0166951
1374	0.0351227
1386	0.165849
1398	0.137026
1410	0.0269327
1422	0.0532353
1434	0.135766
1446	0.206169
1458	0.116078
1470	0.105368
1482	0.0478803
1494	0.0154351
1506	0.0222076
1518	0.0173251
1530	0.0148051
1542	0.0267752
1554	0.0261452
1566	0.0907206
1578	0.189474
1590	0.314214
1602	0.155296
1614	0.0426828
1626	0.0415803
1638	0.0456753
1650	0.0412653
1662	0.0259877
1674	0.0563854
1686	0.083318
1698	0.221604
1710	1.37892
1722	1.40412
1734	0.239087
1746	0.0872556
1758	0.0481953
1770	0.0529203
1782	0.0348077
1794	0.0343352
1806	0.0308702
1818	0.0247277
1830	0.0133876
1842	0.0133876
1854	0.0124426
1866	0.00992256
1878	0.00425253
1890	0.00567004
1902	0.00645754
1914	0.00645754
1926	0.0121276
1938	0.0152776
1950	0.00913506
1962	0.0129151
1974	0.0110251
1986	0.00456753
1998	0.00504003
2010	0.00850505
2022	0.00787505
2034	0.00299252
2046	0.00157501
2058	0.000945006
2070	0.000787505
2082	0.000315002
2094	0.000787505
2106	0.000472503
2118	0.000472503
2130	0.000472503
2142	0.00126001
2154	0.000787505
2166	0.000945006
2178	0.00189001
2190	0.000945006
2202	0.000787505
2214	0.00126001
2226	0.000945006
2238	0.00267752
2250	0.00173251
2262	0.00157501
2274	0.00299252
2286	0.00267752
2298	0.000787505
2310	0
2322	0.00126001
2334	0.000630004
2346	0.00315002
2358	0
2370	0.00724505
2382	0.00803255
2394	0.00441003
2406	0.00267752
2418	0.00378002
2430	0.00267752
2442	0.00204751
2454	0.00362252
2466	0.00409503
2478	0.00425253
2490	0.00378002
2502	0.00283502
2514	0.00267752
2526	0.00378002
2538	0.00425253
2550	0.00551253
2562	0.00535503
2574	0.00441003
2586	0.00519753
2598	0.00693004
2610	0.00803255
2622	0.00929256
2634	0.00882006
2646	0.00866255
2658	0.00945006
2670	0.00819005
2682	0.00598504
2694	0.00866255
2706	0.0135451
2718	0.0327602
2730	0.0431553
2742	0.0554404
2754	0.0609529
2766	0.0242552
2778	0.0166951
2790	0.0140176
2802	0.0165376
2814	0.0245702
2826	0.0357527
2838	0.0522903
2850	0.100013
2862	0.196719
2874	0.173566
2886	0.0324452
2898	0.0162226
2910	0.0143326
2922	0.0122851
2934	0.0130726
2946	0.0135451
2958	0.0143326
2970	0.0148051
2982	0.0138601
2994	0.0157501
3006	0.0151201
3018	0.0160651
3030	0.0151201
3042	0.0126001
3054	0.0190576
3066	0.0664654
3078	0.147578
3090	0.081743
3102	0.0218926
3114	0.0107101
3126	0.0111826
3138	0.0168526
3150	0.0133876
3162	0.00787505
3174	0.00535503
3186	0.00472503
3198	0.00456753
3210	0.00567004
3222	0.00488253
3234	0.00409503
3246	0.00393752
3258	0.00299252
3270	0.00393752
3282	0.00346502
3294	0.00441003
3306	0.00299252
3318	0.00283502
3330	0.00346502
3342	0.00330752
3354	0.00519753
3366	0.00614254
3378	0.00661504
3390	0.00819005
3402	0.0179551
3414	0.0333902
3426	0.0110251
3438	0.00330752
3450	0.00299252
3462	0.00189001
3474	0.000157501
3486	0.00252002
3498	0.00330752
3510	0.00204751
3522	0.00110251
3534	0.00283502
3546	0.00252002
3558	0.00740255
3570	0.0119701
3582	0.0103951
3594	0.00456753
3606	0.000787505
3618	0.00204751
3630	0.00378002
3642	0.00126001
3654	0.00299252
3666	0.00236251
3678	0.00441003
3690	0.00645754
3702	0.00393752
3714	0.00551253
3726	0.00299252
3738	0.00441003
3750	0.00362252
3762	0.000630004
3774	0.00488253
3786	0.00378002
3798	0.00110251
3810	0.00267752
3822	0.00378002
3834	0.00315002
3846	0.00378002
3858	0.00488253
3870	0.00393752
3882	0.00362252
3894	0.00661504
3906	0.00441003
3918	0.00173251
3930	0.00110251
3942	0.000945006
3954	0.00315002
3966	0.00283502
