Infrared Spectrum: 2,4,5-Trichlorotoluene
Formula: C 7 H 5 Cl 3
CAS: 6639-30-1
Origin: Sadtler Research Labs Under US-EPA Contract
1/CM	ABSORBANCE
450	0.0166258
462	0.0138188
474	0.015978
486	0.00633362
498	0.0215199
510	0.0147545
522	0.032028
534	0.135813
546	0.0769391
558	0.00511008
570	0.00475022
582	0.00230314
594	0.0110838
606	0.0158341
618	0.00230314
630	0.00165538
642	0.0146105
654	0.0137468
666	0.0945725
678	0.259966
690	0.0125953
702	0.0272778
714	0.115085
726	0.0431838
738	0.015978
750	0.0111558
762	0.0177773
774	0.013387
786	0.0138908
798	0.00834887
810	0.00878071
822	0.031884
834	0.0173455
846	0.00957241
858	0.0197206
870	0.130991
882	0.199437
894	0.0418163
906	0.0801779
918	0.105728
930	0.0286453
942	0.0192888
954	0.0141787
966	0.0120915
978	0.0172735
990	0.0328197
1002	0.0616809
1014	0.0356986
1026	0.0207282
1038	0.0370661
1050	0.0413125
1062	0.148552
1074	0.689213
1086	0.365479
1098	0.0408807
1110	0.0436156
1122	0.0828409
1134	0.220813
1146	0.126097
1158	0.0126672
1170	0.0119475
1182	0.0127392
1194	0.0249027
1206	0.0580822
1218	0.0577223
1230	0.0192888
1242	0.0366343
1254	0.021232
1266	0.00842084
1278	0.0131711
1290	0.0165538
1302	0.0145385
1314	0.0199365
1326	0.0457748
1338	0.139052
1350	0.169424
1362	0.0575784
1374	0.0362024
1386	0.0516766
1398	0.040017
1410	0.0278536
1422	0.0462067
1434	0.191016
1446	0.442058
1458	0.353315
1470	0.541813
1482	0.391821
1494	0.0423921
1506	0.0268459
1518	0.0258383
1530	0.029293
1542	0.0202244
1554	0.0216639
1566	0.0220237
1578	0.024111
1590	0.024111
1602	0.013387
1614	0.00942846
1626	0.00827689
1638	0.00806098
1650	0.0071973
1662	0.00870873
1674	0.00712533
1686	0.00554192
1698	0.00554192
1710	0.00957241
1722	0.0203684
1734	0.0338273
1746	0.0197206
1758	0.0071973
1770	0.00561389
1782	0.00683743
1794	0.0061177
1806	0.00705335
1818	0.00784506
1830	0.00467825
1842	0.00417443
1854	0.00395852
1866	0.00446233
1878	0.00489416
1890	0.00511008
1902	0.00460627
1914	0.00575784
1926	0.005326
1938	0.00460627
1950	0.00309484
1962	0.00302287
1974	0.00367062
1986	0.002663
1998	0.00280695
2010	0.0018713
2022	0.00151143
2034	0.00208722
2046	0.00136749
2058	0.00151143
2070	0.0018713
2082	0.00179932
2094	0.00215919
2106	0.00251906
2118	0.00215919
2130	0.00251906
2142	0.00309484
2154	0.00295089
2166	0.00208722
2178	0.00230314
2190	0.00280695
2202	0.00244708
2214	0.00244708
2226	0.00223116
2238	0.00273497
2250	0.00273497
2262	0.00323878
2274	0.00295089
2286	0.00410246
2298	0.00546995
2310	0.00647757
2322	0.00518206
2334	0.00496614
2346	0.00482219
2358	0.00489416
2370	0.00475022
2382	0.00705335
2394	0.00388654
2406	0.002663
2418	0.00316681
2430	0.00230314
2442	0.00251906
2454	0.00352668
2466	0.0034547
2478	0.00194327
2490	0.00208722
2502	0.00179932
2514	0.0018713
2526	0.00172735
2538	0.00143946
2550	0.00122354
2562	0.00122354
2574	0.00122354
2586	0.00215919
2598	0.00316681
2610	0.00287892
2622	0.00273497
2634	0.00237511
2646	0.00295089
2658	0.00230314
2670	0.00237511
2682	0.00287892
2694	0.0034547
2706	0.00302287
2718	0.00395852
2730	0.00352668
2742	0.00410246
2754	0.00690941
2766	0.00518206
2778	0.00467825
2790	0.00647757
2802	0.00496614
2814	0.00561389
2826	0.0064056
2838	0.00698138
2850	0.0098603
2862	0.0182092
2874	0.029293
2886	0.024111
2898	0.0195047
2910	0.0179213
2922	0.0256224
2934	0.0740602
2946	0.0760035
2958	0.0342591
2970	0.0433277
2982	0.042608
2994	0.0459907
3006	0.0282854
3018	0.0163379
3030	0.0125953
3042	0.0118755
3054	0.0123794
3066	0.018641
3078	0.0148264
3090	0.00698138
3102	0.00546995
3114	0.00446233
3126	0.00546995
3138	0.0037426
3150	0.002663
3162	0.00302287
3174	0.00158341
3186	0.00158341
3198	0.00237511
3210	0.00215919
3222	0.00215919
3234	0.00100762
3246	0.00151143
3258	0.00201524
3270	0.00215919
3282	0.002663
3294	0.00273497
3306	0.00223116
3318	0.0018713
3330	0.00179932
3342	0.00244708
3354	0.00151143
3366	0.00208722
3378	0.000935649
3390	0.00208722
3402	0.00215919
3414	0.00129551
3426	0.00237511
3438	0.00295089
3450	0.00172735
3462	0.000791703
3474	0.002663
3486	0.00251906
3498	0.00151143
3510	0.00136749
3522	0.00273497
3534	0.00259103
3546	0.00215919
3558	0.00215919
3570	0.00244708
3582	0.00280695
3594	0.00215919
3606	0.00309484
3618	0.00194327
3630	0.00165538
3642	0.0034547
3654	0.00172735
3666	0.00223116
3678	0.00215919
3690	0.00280695
3702	0.00237511
3714	0.00230314
3726	0.00280695
3738	0.00115157
3750	0.00194327
3762	0.0034547
3774	0.00309484
3786	0.00395852
3798	0.00388654
3810	0.00244708
3822	0.00287892
3834	0.00367062
3846	0.00230314
3858	0.00410246
3870	0.00359865
3882	0.00251906
3894	0.00172735
3906	0.00352668
3918	0.00251906
3930	0.00475022
3942	0.00489416
3954	0
3966	0.000287892
