Infrared Spectrum: 4,5-Dichloro-2-nitroaniline
Formula: C 6 H 4 Cl 2 N 2 O 2
CAS: 6641-64-1
Origin: Sadtler Research Labs Under US-EPA Contract
1/CM	ABSORBANCE
450	0.0199902
462	0.00721386
474	0.0074746
486	0.0276387
498	0.0146885
510	0.0146885
522	0.0588408
534	0.0345049
546	0.0125156
558	0.0292031
570	0.0169482
582	0.0372861
594	0.0302461
606	0.0246836
618	0.0478027
630	0.0253789
642	0.0314629
654	0.0443261
666	0.0676191
678	0.179651
690	0.0531914
702	0.0293769
714	0.0582324
726	0.0921288
738	0.0619697
750	0.0406758
762	0.0489326
774	0.0130371
786	0.00738769
798	0.00947363
810	0.0216416
822	0.032332
834	0.0750937
846	0.14054
858	0.0536259
870	0.0149492
882	0.0341572
894	0.0785703
906	0.0419795
918	0.017209
930	0.020164
942	0.0749199
954	0.240404
966	0.130892
978	0.0166875
990	0.0138193
1002	0.00338965
1014	0.00478027
1026	0.0043457
1038	0.0074746
1050	0.0238144
1062	0.0314629
1074	0.0246836
1086	0.0180781
1098	0.0102559
1110	0.0116465
1122	0.0203379
1134	0.0368515
1146	0.162529
1158	0.132544
1170	0.0381552
1182	0.0415449
1194	0.0483242
1206	0.0554511
1218	0.0883046
1230	0.166875
1242	0.369298
1254	0.64777
1266	0.382161
1278	0.174958
1290	0.0853495
1302	0.101516
1314	0.168874
1326	0.16531
1338	0.452648
1350	0.324015
1362	0.0913466
1374	0.0457168
1386	0.0432832
1398	0.0830029
1410	0.0881308
1422	0.0443261
1434	0.0590146
1446	0.175132
1458	0.327927
1470	0.384768
1482	0.227541
1494	0.202857
1506	0.462469
1518	0.607703
1530	0.312977
1542	0.202336
1554	0.322277
1566	0.45682
1578	0.209984
1590	0.135151
1602	0.187126
1614	0.543386
1626	0.81395
1638	0.214938
1650	0.076832
1662	0.0455429
1674	0.0341572
1686	0.0197295
1698	0.00921288
1710	0.0118203
1722	0.00947363
1734	0.00243359
1746	0.00964745
1758	0.00547558
1770	0.00643164
1782	0.0134717
1794	0.0074746
1806	0.00834374
1818	0.00669238
1830	0.00234668
1842	0.00617089
1854	0.00460644
1866	0.00356347
1878	0.00643164
1890	0.00330273
1902	0.00391113
1914	0.00686621
1926	0.00365039
1938	0.0049541
1950	0.0049541
1962	0.00330273
1974	0.00469336
1986	0.00391113
1998	0.00234668
2010	0.00451953
2022	0.00408496
2034	0.00304199
2046	0.00512793
2058	0.00347656
2070	0.00486718
2082	0.00478027
2094	0.0031289
2106	0.00478027
2118	0.00460644
2130	0.0031289
2142	0.00504101
2154	0.00469336
2166	0.00295508
2178	0.00504101
2190	0.00382422
2202	0.0043457
2214	0.0055625
2226	0.00286816
2238	0.00417187
2250	0.00451953
2262	0.00321582
2274	0.00460644
2286	0.0049541
2298	0.00599707
2310	0.00790917
2322	0.0055625
2334	0.00547558
2346	0.0117334
2358	0.00825683
2370	0.00834374
2382	0.00686621
2394	0.0031289
2406	0.00608398
2418	0.00521484
2430	0.00365039
2442	0.00608398
2454	0.00391113
2466	0.00330273
2478	0.00486718
2490	0.00365039
2502	0.00365039
2514	0.00408496
2526	0.0012168
2538	0.00321582
2550	0.00382422
2562	0.00338965
2574	0.00564941
2586	0.00651855
2598	0.00547558
2610	0.00782226
2622	0.00538867
2634	0.00573632
2646	0.008083
2658	0.00669238
2670	0.00773535
2682	0.00738769
2694	0.00599707
2706	0.00903906
2718	0.0086914
2730	0.00538867
2742	0.00843066
2754	0.00677929
2766	0.00712695
2778	0.00877831
2790	0.00625781
2802	0.0086914
2814	0.0116465
2826	0.00956054
2838	0.0132109
2850	0.0147754
2862	0.0119941
2874	0.0154707
2886	0.0129502
2898	0.0133848
2910	0.0169482
2922	0.0132978
2934	0.0125156
2946	0.0177305
2958	0.0125156
2970	0.0132109
2982	0.0113857
2994	0.00738769
3006	0.012168
3018	0.0126894
3030	0.0106035
3042	0.0128633
3054	0.013124
3066	0.0163398
3078	0.0210332
3090	0.0227715
3102	0.0272041
3114	0.0243359
3126	0.00921288
3138	0.0099082
3150	0.00860449
3162	0.00843066
3174	0.0112119
3186	0.00947363
3198	0.00964745
3210	0.0107773
3222	0.00686621
3234	0.00834374
3246	0.0099082
3258	0.00634472
3270	0.00982128
3282	0.00860449
3294	0.0074746
3306	0.0118203
3318	0.0086914
3330	0.00999511
3342	0.0146885
3354	0.014167
3366	0.0206855
3378	0.0326797
3390	0.0518007
3402	0.168874
3414	0.265435
3426	0.0824814
3438	0.0261611
3450	0.0185127
3462	0.0166875
3474	0.0244228
3486	0.0295508
3498	0.0416318
3510	0.0675322
3522	0.115943
3534	0.143234
3546	0.0784833
3558	0.0248574
3570	0.0137324
3582	0.0122549
3594	0.00912597
3606	0.012168
3618	0.00773535
3630	0.00147754
3642	0.0106035
3654	0.00417187
3666	0.00686621
3678	0.00460644
3690	0.00269433
3702	0.00895214
3714	0.00625781
3726	0.00591015
3738	0.00591015
3750	0.00478027
3762	0.00660546
3774	0.0113857
3786	0.0092998
3798	0.00660546
3810	0.0112988
3822	0.0049541
3834	0.00921288
3846	0.0106904
3858	0.0049541
3870	0.00999511
3882	0.0106904
3894	0.00712695
3906	0.014167
3918	0.0136455
3930	0.010082
3942	0.0176435
3954	0
3966	0.0012168
