Infrared Spectrum: Propionitrile, 3-dodecyloxy-2,2-diethoxy-,
Formula: C 19 H 37 N O 3
CAS: 66487-26-1
Origin: Sadtler Research Labs Under US-EPA Contract
1/CM	ABSORBANCE
450	0.0933047
462	0.0466982
474	0.0543896
486	0.0287514
498	0.038732
510	0.0297586
522	0.0269201
534	0.0237153
546	0.0495367
558	0.0184961
570	0.047156
582	0.0523752
594	0.0331465
606	0.0344284
618	0.0339706
630	0.0272864
642	0.0383657
654	0.0247225
666	0.0264623
678	0.0262792
690	0.0149251
702	0.0297586
714	0.0376332
726	0.0439512
738	0.0157492
750	0.04505
762	0.0341537
774	0.035985
786	0.0276526
798	0.0361682
810	0.0341537
822	0.0392814
834	0.0412958
846	0.0406549
858	0.0416621
870	0.0405633
882	0.0363513
894	0.0317731
906	0.0275611
918	0.0321393
930	0.0293008
942	0.0335128
954	0.0356188
966	0.0357103
978	0.0556715
990	0.0650111
1002	0.0812182
1014	0.0917481
1026	0.0991649
1038	0.108047
1050	0.119859
1062	0.134967
1074	0.173516
1086	0.249057
1098	0.378621
1110	0.522012
1122	0.582445
1134	0.477878
1146	0.331832
1158	0.176629
1170	0.0839651
1182	0.0410211
1194	0.0310405
1206	0.0334212
1218	0.0214262
1230	0.0358935
1242	0.0580522
1254	0.0832326
1266	0.0755411
1278	0.0806688
1290	0.0890927
1302	0.0866205
1314	0.0693147
1326	0.0727942
1338	0.0770062
1350	0.125627
1362	0.113724
1374	0.0891843
1386	0.0722448
1398	0.0545727
1410	0.0525583
1422	0.0553968
1434	0.0601582
1446	0.0967842
1458	0.134143
1470	0.111526
1482	0.064828
1494	0.0323224
1506	0.0223419
1518	0.0169395
1530	0.0159323
1542	0.0139179
1554	0.0116288
1566	0.0124528
1578	0.0106215
1590	0.01053
1602	0.0108047
1614	0.0114456
1626	0.00961432
1638	0.0106215
1650	0.00998059
1662	0.00879024
1674	0.00906493
1686	0.0106215
1698	0.012636
1710	0.0115372
1722	0.0110794
1734	0.0133685
1746	0.014742
1758	0.0174889
1770	0.0153829
1782	0.0115372
1794	0.00933963
1806	0.00805772
1818	0.00805772
1830	0.00741676
1842	0.00787459
1854	0.0073252
1866	0.00759989
1878	0.00741676
1890	0.00796615
1902	0.00879024
1914	0.00906493
1926	0.0102553
1938	0.0104384
1950	0.01053
1962	0.0101637
1974	0.0104384
1986	0.0102553
1998	0.00933963
2010	0.00869867
2022	0.00833241
2034	0.0088818
2046	0.00824085
2058	0.00833241
2070	0.00814928
2082	0.00759989
2094	0.00814928
2106	0.00796615
2118	0.00759989
2130	0.00741676
2142	0.00714207
2154	0.00750833
2166	0.00677581
2178	0.00640955
2190	0.00631798
2202	0.00567703
2214	0.00613485
2226	0.00659268
2238	0.00924806
2250	0.0182214
2262	0.0100722
2274	0.00668424
2286	0.00512764
2298	0.00595172
2310	0.00567703
2322	0.00558546
2334	0.00540233
2346	0.00586016
2358	0.00540233
2370	0.00457825
2382	0.00540233
2394	0.00311321
2406	0.00283851
2418	0.00293008
2430	0.00320477
2442	0.00274695
2454	0.00265538
2466	0.00302164
2478	0.00311321
2490	0.00283851
2502	0.00347947
2514	0.00375416
2526	0.00457825
2538	0.00503608
2550	0.0054939
2562	0.00586016
2574	0.00650112
2586	0.0073252
2598	0.00869867
2610	0.0091565
2622	0.0101637
2634	0.0111709
2646	0.0130938
2658	0.0143757
2670	0.0172142
2682	0.0198696
2694	0.0230744
2706	0.0261876
2718	0.028843
2730	0.0329634
2742	0.0358019
2754	0.0379995
2766	0.040838
2778	0.0476138
2790	0.0576859
2802	0.0712376
2814	0.0880855
2826	0.118027
2838	0.185511
2850	0.373768
2862	0.57219
2874	0.509468
2886	0.423488
2898	0.428066
2910	0.530711
2922	0.752298
2934	0.912537
2946	0.625847
2958	0.400139
2970	0.277442
2982	0.128466
2994	0.064828
3006	0.0395561
3018	0.0277442
3030	0.0202359
3042	0.015566
3054	0.0123613
3066	0.00961432
3078	0.00924806
3090	0.00824085
3102	0.00769146
3114	0.0054939
3126	0.00512764
3138	0.00631798
3150	0.00466981
3162	0.00558546
3174	0.00466981
3186	0.00421199
3198	0.00439512
3210	0.00375416
3222	0.0033879
3234	0.00302164
3246	0.0036626
3258	0.0036626
3270	0.00357103
3282	0.00256382
3294	0.00311321
3306	0.00274695
3318	0.00265538
3330	0.00274695
3342	0.00247226
3354	0.0033879
3366	0.00311321
3378	0.00274695
3390	0.00384573
3402	0.00384573
3414	0.00439512
3426	0.0052192
3438	0.00274695
3450	0.00476138
3462	0.00375416
3474	0.00412042
3486	0.00402886
3498	0.00393729
3510	0.00567703
3522	0.00531077
3534	0.00512764
3546	0.00613485
3558	0.00430355
3570	0.00741676
3582	0.00659268
3594	0.00503608
3606	0.00622642
3618	0.00650112
3630	0.00686737
3642	0.00833241
3654	0.00503608
3666	0.00741676
3678	0.00622642
3690	0.00723363
3702	0.00869867
3714	0.00668424
3726	0.00595172
3738	0.00659268
3750	0.0052192
3762	0.00677581
3774	0.00540233
3786	0.00650112
3798	0.00375416
3810	0.00595172
3822	0.00631798
3834	0.00659268
3846	0.00842398
3858	0.00842398
3870	0.00412042
3882	0.00494451
3894	0.0088818
3906	0.00814928
3918	0.00869867
3930	0.00824085
3942	0.00778302
3954	0.00805772
3966	0.0114456
