Infrared Spectrum: Benzene, (1-chloroethyl)-
Formula: C 8 H 9 Cl
CAS: 672-65-1
Origin: Sadtler Research Labs Under US-EPA Contract
1/CM	ABSORBANCE
450	0.0047729
462	0.00371783
474	0.00617964
486	0.0111033
498	0.0217041
510	0.0479802
522	0.0564206
534	0.0274316
546	0.018137
558	0.0283862
570	0.0787276
582	0.04587
594	0.0147709
606	0.0191418
618	0.0362238
630	0.0518487
642	0.0972666
654	0.138313
666	0.249346
678	0.32521
690	0.46915
702	0.364398
714	0.115705
726	0.0511453
738	0.0563704
750	0.129119
762	0.215333
774	0.150321
786	0.0882734
798	0.0300441
810	0.00974675
822	0.00256229
834	0.000452169
846	0.000100482
858	0.00246181
870	0.00934483
882	0.0103999
894	0.0165795
906	0.0299436
918	0.0222568
930	0.0113042
942	0.0102994
954	0.0246181
966	0.0572747
978	0.0641578
990	0.0363745
1002	0.0197447
1014	0.0365754
1026	0.109224
1038	0.0925439
1050	0.166398
1062	0.134143
1074	0.0369271
1086	0.0363745
1098	0.0255727
1110	0.0160771
1122	0.00648109
1134	0.00246181
1146	0.00165795
1158	0.00532555
1170	0.009797
1182	0.0238142
1194	0.0353697
1206	0.0420015
1218	0.0616457
1230	0.149618
1242	0.209053
1254	0.103597
1266	0.0353697
1278	0.027934
1290	0.040243
1302	0.0423532
1314	0.0297427
1326	0.0277833
1338	0.0251205
1350	0.027733
1362	0.0242162
1374	0.0582293
1386	0.0773209
1398	0.0270297
1410	0.0118569
1422	0.0182375
1434	0.0427049
1446	0.118318
1458	0.145699
1470	0.0694833
1482	0.0429561
1494	0.0945033
1506	0.0710408
1518	0.014168
1530	0.0103999
1542	0.00803856
1554	0.00482314
1566	0.00562699
1578	0.0118569
1590	0.0211515
1602	0.0370779
1614	0.0236133
1626	0.00949555
1638	0.00884242
1650	0.00552651
1662	0.00844049
1674	0.0114549
1686	0.00658157
1698	0.00537579
1710	0.00643085
1722	0.00889266
1734	0.0140675
1746	0.0155747
1758	0.00909362
1770	0.00633037
1782	0.00904338
1794	0.023764
1806	0.0186394
1818	0.0111535
1830	0.00743567
1842	0.00462217
1854	0.00743567
1866	0.0140675
1878	0.0187901
1890	0.0171322
1902	0.00778736
1914	0.00487338
1926	0.00864145
1938	0.0181872
1950	0.0221563
1962	0.0184384
1974	0.0072347
1986	0.00386856
1998	0.00301446
2010	0.00251205
2022	0.00261253
2034	0.00185892
2046	0.00160771
2058	0.00170819
2070	0.000904338
2082	0.000100482
2094	0.00185892
2106	0.0019594
2118	0.00155747
2130	0.00231109
2142	0.00256229
2154	0.00185892
2166	0.00120578
2178	0.00105506
2190	0.000753615
2202	0.000703374
2214	0.000301446
2226	0.000602892
2238	0.0011053
2250	0.0022106
2262	0.00175844
2274	0.00170819
2286	0.00241157
2298	0.00205988
2310	0.00341639
2322	0.00452169
2334	0.00472265
2346	0.00869169
2358	0.00341639
2370	0.00668205
2382	0.00602892
2394	0.0028135
2406	0.00296422
2418	0.00251205
2430	0.00301446
2442	0.0030647
2454	0.00261253
2466	0.00261253
2478	0.00216036
2490	0.00236133
2502	0.00271301
2514	0.00321542
2526	0.00271301
2538	0.00231109
2550	0.0022106
2562	0.00231109
2574	0.00236133
2586	0.00296422
2598	0.00361735
2610	0.00497386
2622	0.00447145
2634	0.00492362
2646	0.0047729
2658	0.00447145
2670	0.00256229
2682	0.00256229
2694	0.0028135
2706	0.0028135
2718	0.00216036
2730	0.00522506
2742	0.00472265
2754	0.0058782
2766	0.00311494
2778	0.00557675
2790	0.00386856
2802	0.00643085
2814	0.0058782
2826	0.0080888
2838	0.00793808
2850	0.00924434
2862	0.0169312
2874	0.0361233
2886	0.0397406
2898	0.032104
2910	0.0312499
2922	0.0443126
2934	0.0957593
2946	0.104903
2958	0.0647606
2970	0.0731007
2982	0.196945
2994	0.298884
3006	0.168056
3018	0.0738543
3030	0.140373
3042	0.205988
3054	0.147307
3066	0.16042
3078	0.230556
3090	0.156903
3102	0.106159
3114	0.0610428
3126	0.0270297
3138	0.00803856
3150	0.00537579
3162	0.00512458
3174	0.00622988
3186	0.00562699
3198	0.00366759
3210	0.00462217
3222	0.00582796
3234	0.00497386
3246	0.00442121
3258	0.00472265
3270	0.00331591
3282	0.00371783
3294	0.00190916
3306	0.00135651
3318	0.00170819
3330	0.00105506
3342	0.000150723
3354	0.000854097
3366	0.00216036
3378	0.00216036
3390	0.00216036
3402	0.00120578
3414	0.0011053
3426	0.00155747
3438	0.000803856
3450	0.00170819
3462	0.00050241
3474	0.000703374
3486	0.00286374
3498	0.000703374
3510	0.000803856
3522	0.00155747
3534	0.00205988
3546	0.00185892
3558	0.00120578
3570	0.00155747
3582	0.00125603
3594	0.00241157
3606	0.00266277
3618	0.0011053
3630	0.0030647
3642	0.00417
3654	0.00462217
3666	0.00371783
3678	0.00356711
3690	0.00160771
3702	0.00266277
3714	0.00120578
3726	0.00301446
3738	0.000753615
3750	0.00256229
3762	0.00135651
3774	0.00150723
3786	0
3798	0.000100482
3810	0.000100482
3822	0.000401928
3834	0.000251205
3846	0.000653133
3858	0.00115554
3870	0.000100482
3882	0.000100482
3894	0.000100482
3906	0.000100482
3918	0.000100482
3930	0.000100482
3942	0.000100482
3954	0.000100482
3966	0.000100482
