Infrared Spectrum: Benzene, 1-propynyl-
Formula: C 9 H 8
CAS: 673-32-5
Origin: Sadtler Research Labs Under US-EPA Contract
1/CM	ABSORBANCE
450	0.00233008
462	0.00774752
474	0.00466016
486	0.00518443
498	0.0106019
510	0.0291843
522	0.0585433
534	0.0552811
546	0.0233008
558	0.00687374
570	0.00506792
582	0.00768926
594	0.00763101
606	0.027961
618	0.0345434
630	0.0107766
642	0.00524268
654	0.0163106
666	0.0553977
678	0.183902
690	0.40322
702	0.249843
714	0.0973973
726	0.0432812
738	0.187455
750	0.378114
762	0.345201
774	0.132582
786	0.0151455
798	0.00576695
810	0.00180581
822	0.00238833
834	0.00961158
846	0.0117669
858	0.00541744
870	0.00326211
882	0.00460191
894	0.0134562
906	0.0322716
918	0.0268542
930	0.0117087
942	0.00168931
954	0.000116504
966	0.0124659
978	0.0177086
990	0.0111844
1002	0.00646597
1014	0.00640772
1026	0.049922
1038	0.0414172
1050	0.0250484
1062	0.0438055
1074	0.0422327
1086	0.0200387
1098	0.0112426
1110	0.00646597
1122	0.00355337
1134	0.0029126
1146	0.00320386
1158	0.00407764
1170	0.00634947
1182	0.00704849
1194	0.00599996
1206	0.00611646
1218	0.00722325
1230	0.00675723
1242	0.00897081
1254	0.0244658
1266	0.0461356
1278	0.0305823
1290	0.0283105
1302	0.0134562
1314	0.0133397
1326	0.0163688
1338	0.0158445
1350	0.021728
1362	0.0391453
1374	0.0731063
1386	0.0831256
1398	0.028893
1410	0.0202134
1422	0.0418249
1434	0.0644267
1446	0.0718247
1458	0.0600578
1470	0.0318638
1482	0.125009
1494	0.31124
1506	0.125475
1518	0.044621
1530	0.0240581
1542	0.0351842
1554	0.0186406
1566	0.0245823
1578	0.0413589
1590	0.079747
1602	0.16829
1614	0.0719412
1626	0.00920382
1638	0.00588345
1650	0.00867955
1662	0.0251066
1674	0.0191067
1686	0.0111261
1698	0.00710674
1710	0.00751451
1722	0.0119417
1734	0.0201552
1746	0.0183494
1758	0.0216115
1770	0.0178834
1782	0.0175339
1794	0.0333784
1806	0.0248154
1818	0.0127572
1830	0.00704849
1842	0.0043689
1854	0.00763101
1866	0.0154368
1878	0.0223688
1890	0.0241163
1902	0.00605821
1914	0.00343687
1926	0.0103689
1938	0.0209707
1950	0.0287765
1962	0.021961
1974	0.00349512
1986	0.00151455
1998	0.00116504
2010	0.00058252
2022	0.000174756
2034	0.000932032
2046	0.00646597
2058	0.00972808
2070	0.0014563
2082	0.000699024
2094	0.000640772
2106	0.000757276
2118	0.00122329
2130	0.00163106
2142	0.000640772
2154	0.00128154
2166	0.00238833
2178	0.00273784
2190	0.0044854
2202	0.00966983
2214	0.0228348
2226	0.0198639
2238	0.014563
2250	0.0353007
2262	0.0366405
2274	0.0102524
2286	0
2298	0.00285435
2310	0.00652422
2322	0.00640772
2334	0.0059417
2346	0.00710674
2358	0.00745626
2370	0.00238833
2382	0.00343687
2394	0.00431065
2406	0.00355337
2418	0.00442715
2430	0.00518443
2442	0.00396114
2454	0.00454366
2466	0.00489317
2478	0.0044854
2490	0.0044854
2502	0.0042524
2514	0.00460191
2526	0.00454366
2538	0.00396114
2550	0.00366988
2562	0.00250484
2574	0.00285435
2586	0.00262134
2598	0.00396114
2610	0.00396114
2622	0.00244658
2634	0.00262134
2646	0.00337862
2658	0.00285435
2670	0.00203882
2682	0.00174756
2694	0.00174756
2706	0.00209707
2718	0.00308736
2730	0.00588345
2742	0.0139222
2754	0.0179999
2766	0.00897081
2778	0.00466016
2790	0.00483492
2802	0.00431065
2814	0.00530093
2826	0.007398
2838	0.0129902
2850	0.0257474
2862	0.073048
2874	0.143067
2886	0.064485
2898	0.0329706
2910	0.0336697
2922	0.110038
2934	0.339842
2946	0.129378
2958	0.0449123
2970	0.0458443
2982	0.0534171
2994	0.0359415
3006	0.0709509
3018	0.0816693
3030	0.118135
3042	0.177086
3054	0.157106
3066	0.290561
3078	0.285784
3090	0.194387
3102	0.150232
3114	0.0715335
3126	0.0189319
3138	0.0108349
3150	0.0117087
3162	0.00710674
3174	0.00588345
3186	0.00378638
3198	0.00262134
3210	0.0029126
3222	0.00454366
3234	0.0057087
3246	0.00361162
3258	0.00198057
3270	0.00209707
3282	0.00227183
3294	0.00227183
3306	0.00198057
3318	0.00215532
3330	0.00262134
3342	0.00192232
3354	0.00168931
3366	0.00104854
3378	0.00087378
3390	0.000990284
3402	0.0014563
3414	0.00128154
3426	0.00203882
3438	0.0015728
3450	0.00139805
3462	0.00256309
3474	0.00168931
3486	0.000990284
3498	0.0013398
3510	0.00128154
3522	0.00221358
3534	0.00128154
3546	0.00029126
3558	0.000699024
3570	0.0013398
3582	0.00419414
3594	0.0030291
3606	0.00139805
3618	0.000407764
3630	0.00285435
3642	0.00151455
3654	0.00174756
3666	0.00215532
3678	0.00320386
3690	0.00233008
3702	0.00151455
3714	0.0029126
3726	0.00087378
3738	0.00168931
3750	0.00227183
3762	0.00267959
3774	0.00215532
3786	0.00122329
3798	0.0014563
3810	0.000815528
3822	0.00186406
3834	0.00122329
3846	0.000699024
3858	0.0015728
3870	0.00198057
3882	0.000524268
3894	0.00192232
3906	0.00168931
3918	0.00186406
3930	0.00163106
3942	0.0014563
3954	0.00087378
3966	0.000990284
