Infrared Spectrum: Benzaldehyde, 2-hydroxy-4-methoxy-
Formula: C 8 H 8 O 3
CAS: 673-22-3
Origin: Sadtler Research Labs Under US-EPA Contract
1/CM	ABSORBANCE
450	0.0836056
462	0.0564378
474	0.00533653
486	0.00339597
498	0.00274912
510	0.00194056
522	0.00388111
534	0.00727708
546	0.0226398
558	0.0365471
570	0.0456031
582	0.0447945
594	0.0509396
606	0.0412368
618	0.0249038
630	0.0179501
642	0.0213461
654	0.0454414
666	0.125328
678	0.225751
690	0.247097
702	0.215887
714	0.131796
726	0.105113
738	0.0525567
750	0.0439859
762	0.139235
774	0.274427
786	0.287364
798	0.23691
810	0.0751965
822	0.108833
834	0.148938
846	0.1208
858	0.0677577
870	0.070992
882	0.0368706
894	0.0113199
906	0.0101879
918	0.0273295
930	0.0688897
942	0.0468968
954	0.0105113
966	0.00760051
978	0.011805
990	0.0192438
1002	0.0308872
1014	0.0481905
1026	0.134545
1038	0.327145
1050	0.317281
1062	0.105922
1074	0.0310489
1086	0.0206993
1098	0.0300786
1110	0.0583784
1122	0.0868399
1134	0.24354
1146	0.534623
1158	0.475113
1170	0.229471
1182	0.162198
1194	0.141499
1206	0.102041
1218	0.0874867
1230	0.118859
1242	0.288496
1254	0.622595
1266	0.944566
1278	1.59287
1290	0.574081
1302	0.296258
1314	0.343155
1326	0.275397
1338	0.264077
1350	0.242084
1362	0.235616
1374	0.213299
1386	0.114978
1398	0.183706
1410	0.170607
1422	0.118212
1434	0.12274
1446	0.17562
1458	0.243863
1470	0.428701
1482	1.10191
1494	1.12649
1506	0.289628
1518	0.0983215
1530	0.0561144
1542	0.0443094
1554	0.0451179
1566	0.0643618
1578	0.167858
1590	0.312106
1602	0.195511
1614	0.143439
1626	0.172871
1638	0.142469
1650	0.134384
1662	0.356901
1674	1.51525
1686	0.991786
1698	0.274589
1710	0.211035
1722	0.0774605
1734	0.0452796
1746	0.0282998
1758	0.0145542
1770	0.0100262
1782	0.00954107
1794	0.00679195
1806	0.00646852
1818	0.00452796
1830	0.00161713
1842	0.000646852
1854	0.00291083
1866	0.00533653
1878	0.00921764
1890	0.0109965
1902	0.0139073
1914	0.00857079
1926	0.00452796
1938	0.00242569
1950	0.00226398
1962	0.00226398
1974	0.000970278
1986	0.000808565
1998	0.00161713
2010	0.00177884
2022	0.00274912
2034	0.00937935
2046	0.018597
2058	0.0164947
2070	0.0130988
2082	0.0139073
2094	0.00905593
2106	0.0037194
2118	0.00145542
2130	0.000808565
2142	0.000970278
2154	0.000970278
2166	0.000646852
2178	0.00113199
2190	0.00242569
2202	0.00274912
2214	0.0012937
2226	0.000323426
2238	0.000808565
2250	0.0037194
2262	0.00468968
2274	0.00194056
2286	0.00113199
2298	0.000970278
2310	0.000323426
2322	0
2334	0.000808565
2346	0.0012937
2358	0.00145542
2370	0.00258741
2382	0.00242569
2394	0.00436625
2406	0.00663023
2418	0.00840908
2430	0.00517482
2442	0.00307255
2454	0.00323426
2466	0.00323426
2478	0.00291083
2490	0.00258741
2502	0.00226398
2514	0.00339597
2526	0.00549824
2538	0.0074388
2550	0.0101879
2562	0.00937935
2574	0.0087325
2586	0.00986449
2598	0.0101879
2610	0.0105113
2622	0.00970278
2634	0.0105113
2646	0.0114816
2658	0.0132605
2670	0.014069
2682	0.014069
2694	0.0134222
2706	0.0177884
2718	0.0431774
2730	0.0878102
2742	0.0819885
2754	0.0522333
2766	0.0422071
2778	0.0381643
2790	0.0438242
2802	0.0658172
2814	0.127268
2826	0.248715
2838	0.337333
2850	0.231573
2862	0.088457
2874	0.0543356
2886	0.0528802
2898	0.0656555
2910	0.0947638
2922	0.110612
2934	0.112876
2946	0.166726
2958	0.171254
2970	0.0971895
2982	0.0651703
2994	0.0713154
3006	0.152334
3018	0.13503
3030	0.0612892
3042	0.0722857
3054	0.0737411
3066	0.051263
3078	0.048999
3090	0.0441476
3102	0.0336363
3114	0.0307255
3126	0.0299169
3138	0.0295935
3150	0.0328277
3162	0.0413985
3174	0.051263
3186	0.0627446
3198	0.0763285
3210	0.090721
3222	0.102041
3234	0.109156
3246	0.111582
3258	0.105599
3270	0.095249
3282	0.087325
3294	0.0815034
3306	0.0756817
3318	0.0692132
3330	0.0679195
3342	0.0751965
3354	0.0692132
3366	0.0575698
3378	0.0519099
3390	0.0457648
3402	0.0397814
3414	0.036062
3426	0.033798
3438	0.0318575
3450	0.0294318
3462	0.0279763
3474	0.0257124
3486	0.0234484
3498	0.0215078
3510	0.0205376
3522	0.0181119
3534	0.0158479
3546	0.012937
3558	0.0119668
3570	0.0101879
3582	0.00824736
3594	0.00727708
3606	0.00533653
3618	0.00436625
3630	0.00452796
3642	0.00307255
3654	0.00339597
3666	0.00210227
3678	0.00145542
3690	0.000808565
3702	0.000161713
3714	0.000808565
3726	0
3738	0.000646852
3750	0
3762	0
3774	0
3786	0
3798	0
3810	0
3822	0.000323426
3834	0
3846	0
3858	0.000646852
3870	0.000323426
3882	0
3894	0
3906	0
3918	0
3930	0
3942	0
3954	0
3966	0
