Infrared Spectrum: m-Toluidine, 2,6-diethyl-,
Formula: C 11 H 17 N
CAS: 67330-61-4
Origin: Sadtler Research Labs Under US-EPA Contract
1/CM	ABSORBANCE
450	0.241705
462	0.0650609
474	0.0619712
486	0.0549972
498	0.0695631
510	0.0628539
522	0.0572924
534	0.0564979
546	0.0516426
558	0.0561448
570	0.0555269
582	0.0678858
594	0.0687686
606	0.0698279
618	0.0768901
630	0.0710638
642	0.0705341
654	0.0716817
666	0.0686803
678	0.0651492
690	0.0620594
702	0.0542027
714	0.0492591
726	0.0385775
738	0.0331925
750	0.0338105
762	0.0562331
774	0.0865124
786	0.113879
798	0.150779
810	0.0961347
822	0.0437859
834	0.0192446
846	0.0235702
858	0.0264834
870	0.0135948
882	0.00909263
894	0.00670913
906	0.00644429
918	0.0113879
930	0.0247178
942	0.0267482
954	0.0189798
966	0.0186267
978	0.0159783
990	0.0105051
1002	0.00653257
1014	0.00706224
1026	0.0148307
1038	0.0235702
1050	0.062236
1062	0.091456
1074	0.0356643
1086	0.0389306
1098	0.0591463
1110	0.0261303
1122	0.00918091
1134	0.0107699
1146	0.0249827
1158	0.0222461
1170	0.0180087
1182	0.00653257
1194	0.00238351
1206	0.0103285
1218	0.0152721
1230	0.0226874
1242	0.02666
1254	0.0327511
1266	0.06921
1278	0.125002
1290	0.119175
1302	0.0713286
1314	0.0738887
1326	0.054291
1338	0.0256889
1350	0.0237468
1362	0.0303676
1374	0.0472287
1386	0.0630305
1398	0.0395485
1410	0.0697396
1422	0.170112
1434	0.189709
1446	0.170994
1458	0.226168
1470	0.207188
1482	0.176203
1494	0.158547
1506	0.0524371
1518	0.0285138
1530	0.025071
1542	0.0268365
1554	0.0293966
1566	0.0415789
1578	0.0608235
1590	0.0746832
1602	0.116704
1614	0.220607
1626	0.339341
1638	0.198008
1650	0.0774198
1662	0.0466991
1674	0.0275427
1686	0.0160666
1698	0.0138596
1710	0.0135948
1722	0.018097
1734	0.0144776
1746	0.00635602
1758	0.00406079
1770	0.00397251
1782	0.00326629
1794	0.00291317
1806	0.00238351
1818	0.00185384
1830	0.00220695
1842	0.00573807
1854	0.0171259
1866	0.0120058
1878	0.0028249
1890	0.00167728
1902	0.000971058
1914	0.000617946
1926	0.00044139
1938	0.000617946
1950	8.8278e-05
1962	0.000617946
1974	0.00044139
1986	0.00044139
1998	0.00114761
2010	0.00141245
2022	0.001589
2034	0.00203039
2046	0.00176556
2058	0.00256006
2070	0.00256006
2082	0.0028249
2094	0.00353112
2106	0.00344284
2118	0.00335456
2130	0.00335456
2142	0.00335456
2154	0.00335456
2166	0.00353112
2178	0.00335456
2190	0.00308973
2202	0.00326629
2214	0.00335456
2226	0.00370768
2238	0.00388423
2250	0.00388423
2262	0.0044139
2274	0.0052084
2286	0.00591463
2298	0.00617946
2310	0.0060029
2322	0.00662085
2334	0.00573807
2346	0.00476701
2358	0.00556151
2370	0.00388423
2382	0.00388423
2394	0.00459046
2406	0.00467873
2418	0.00459046
2430	0.00609118
2442	0.00591463
2454	0.00459046
2466	0.00476701
2478	0.00414907
2490	0.00467873
2502	0.0044139
2514	0.00423734
2526	0.00485529
2538	0.00512012
2550	0.00538496
2562	0.00547324
2574	0.00476701
2586	0.00512012
2598	0.00529668
2610	0.00662085
2622	0.00935747
2634	0.0102402
2646	0.00768019
2658	0.00670913
2670	0.00662085
2682	0.00697396
2694	0.00856297
2706	0.0088278
2718	0.00979886
2730	0.0148307
2742	0.0231288
2754	0.017479
2766	0.0167728
2778	0.0199508
2790	0.0229523
2802	0.0255123
2814	0.0293083
2826	0.0380478
2838	0.0575573
2850	0.096841
2862	0.167905
2874	0.31886
2886	0.451277
2898	0.330425
2910	0.253005
2922	0.305883
2934	0.454632
2946	0.520046
2958	0.457633
2970	0.818778
2982	0.664998
2994	0.212838
3006	0.118028
3018	0.136478
3030	0.154575
3042	0.148042
3054	0.120411
3066	0.0974589
3078	0.0772432
3090	0.0499653
3102	0.0329277
3114	0.0240999
3126	0.0200391
3138	0.0189798
3150	0.0187149
3162	0.0167728
3174	0.0137714
3186	0.0116527
3198	0.00979886
3210	0.00873952
3222	0.00794502
3234	0.00759191
3246	0.00706224
3258	0.00706224
3270	0.00609118
3282	0.00662085
3294	0.00688568
3306	0.00679741
3318	0.00653257
3330	0.00768019
3342	0.00697396
3354	0.00741535
3366	0.00688568
3378	0.00547324
3390	0.00626774
3402	0.011741
3414	0.0253358
3426	0.02666
3438	0.0135948
3450	0.0115644
3462	0.0123589
3474	0.0195094
3486	0.0466108
3498	0.0790971
3510	0.0527902
3522	0.0222461
3534	0.0120058
3546	0.00591463
3558	0.0096223
3570	0.00971058
3582	0.011123
3594	0.00335456
3606	0.00768019
3618	0.00556151
3630	0.0044139
3642	0.00423734
3654	0.00591463
3666	0.00503185
3678	0.00414907
3690	0.00432562
3702	0.0052084
3714	0.00503185
3726	0.00423734
3738	0.00644429
3750	0.00662085
3762	0.00512012
3774	0.00423734
3786	0.0118293
3798	0.00459046
3810	0.00679741
3822	0.00820985
3834	0.00547324
3846	0.00794502
3858	0.00653257
3870	0.00397251
3882	0.00547324
3894	0.00591463
3906	0.00494357
3918	0.00617946
3930	0.00626774
3942	0.0119175
3954	0.00891608
3966	0.0102402
