Infrared Spectrum: 1,1'-Biphenyl, 2-phenoxy-
Formula: C 18 H 14 O
CAS: 6738-04-1
Origin: Sadtler Research Labs Under US-EPA Contract
1/CM	ABSORBANCE
450	0.0190281
462	0.0259267
474	0.048821
486	0.0365399
498	0.0491242
510	0.0379803
522	0.0318398
534	0.0365399
546	0.0410127
558	0.018649
570	0.023804
582	0.00932451
594	0.030551
606	0.0291107
618	0.0398755
630	0.0213781
642	0.01827
654	0.0291107
666	0.0402546
678	0.0653474
690	0.196194
702	0.17762
714	0.0589794
726	0.077401
738	0.227427
750	0.324159
762	0.13964
774	0.0544309
786	0.0106891
798	0.00598891
810	0.00242589
822	0.00720186
834	0.00955193
846	0.0131908
858	0.0391933
870	0.149116
882	0.0610262
894	0.0341899
906	0.0188006
918	0.0191039
930	0.017057
942	0.0207717
954	0.011902
966	0.0105375
978	0.00894546
990	0.0109923
1002	0.0141005
1014	0.028959
1026	0.00462435
1038	0.0126601
1050	0.0410127
1062	0.0319156
1074	0.052384
1086	0.0244105
1098	0.0347963
1110	0.0787656
1122	0.0497307
1134	0.0423014
1146	0.0479871
1158	0.0768703
1170	0.0750509
1182	0.0516259
1194	0.057539
1206	0.121294
1218	0.403152
1230	0.733376
1242	0.575466
1254	0.389507
1266	0.138503
1278	0.109923
1290	0.0920321
1302	0.0663329
1314	0.0519292
1326	0.0533695
1338	0.0460161
1350	0.0302478
1362	0.0272912
1374	0.0287316
1386	0.0322946
1398	0.0330527
1410	0.0489726
1422	0.07778
1434	0.169206
1446	0.163141
1458	0.173906
1470	0.281934
1482	0.453262
1494	0.506632
1506	0.149495
1518	0.0576148
1530	0.045637
1542	0.0548857
1554	0.0784623
1566	0.145857
1578	0.211355
1590	0.262223
1602	0.209688
1614	0.0947613
1626	0.0498065
1638	0.0397997
1650	0.0389658
1662	0.0246379
1674	0.0222878
1686	0.0214539
1698	0.0223637
1710	0.0160715
1722	0.0160715
1734	0.0155408
1746	0.0172086
1758	0.0183458
1770	0.0241073
1782	0.0215298
1794	0.0256234
1806	0.0219846
1818	0.0165264
1830	0.0189523
1842	0.0169812
1854	0.0156167
1866	0.0171328
1878	0.0188006
1890	0.0179667
1902	0.0179667
1914	0.0211507
1926	0.0228185
1938	0.0276703
1950	0.0206959
1962	0.013873
1974	0.0119778
1986	0.0106891
1998	0.0103858
2010	0.0109923
2022	0.0146311
2034	0.0156167
2046	0.0135698
2058	0.0124327
2070	0.0109923
2082	0.00894546
2094	0.00705024
2106	0.00826318
2118	0.00689862
2130	0.00720186
2142	0.00606472
2154	0.00621634
2166	0.006747
2178	0.00651957
2190	0.006747
2202	0.00659538
2214	0.00636796
2226	0.00614053
2238	0.00598891
2250	0.00636796
2262	0.00629215
2274	0.00621634
2286	0.00644377
2298	0.00606472
2310	0.00788414
2322	0.0103858
2334	0.0100068
2346	0.0100068
2358	0.0114472
2370	0.00977936
2382	0.00795995
2394	0.00909708
2406	0.00962774
2418	0.0119778
2430	0.011902
2442	0.00940032
2454	0.0075809
2466	0.00667119
2478	0.00568568
2490	0.00500339
2502	0.00439692
2514	0.00363883
2526	0.00409369
2538	0.00341141
2550	0.0042453
2562	0.0042453
2574	0.00462435
2586	0.00394207
2598	0.00363883
2610	0.00295655
2622	0.0033356
2634	0.00341141
2646	0.00227427
2658	0.00235008
2670	0.00227427
2682	0.00235008
2694	0.00295655
2706	0.00341141
2718	0.00257751
2730	0.0025017
2742	0.00257751
2754	0.00121294
2766	0.00227427
2778	0.00341141
2790	0.00401788
2802	0.00447273
2814	0.00697443
2826	0.0102342
2838	0.0190281
2850	0.0513227
2862	0.0518534
2874	0.0310817
2886	0.0295655
2898	0.0410127
2910	0.0636796
2922	0.116215
2934	0.10492
2946	0.0486694
2958	0.0248654
2970	0.0101584
2982	0.00795995
2994	0.00886965
3006	0.0128117
3018	0.0328253
3030	0.0842238
3042	0.108028
3054	0.0974904
3066	0.164126
3078	0.189219
3090	0.108483
3102	0.0542792
3114	0.0215298
3126	0.00947613
3138	0.00560987
3150	0.00462435
3162	0.00235008
3174	0.00144037
3186	0.0016678
3198	0.000682281
3210	0.00106133
3222	0
3234	0.00106133
3246	0.00113714
3258	0.00075809
3270	0.00113714
3282	0.00113714
3294	0.00212265
3306	0.0016678
3318	0.00189523
3330	0.00219846
3342	0.00356302
3354	0.00325979
3366	0.00371464
3378	0.00303236
3390	0.0033356
3402	0.00394207
3414	0.00394207
3426	0.00485178
3438	0.00386626
3450	0.00325979
3462	0.00235008
3474	0.00386626
3486	0.00401788
3498	0.00204684
3510	0.00242589
3522	0.00272912
3534	0.00272912
3546	0.00227427
3558	0.00303236
3570	0.00363883
3582	0.0050792
3594	0.00386626
3606	0.00492758
3618	0.00545825
3630	0.0050792
3642	0.00614053
3654	0.00560987
3666	0.00583729
3678	0.00833899
3690	0.00576148
3702	0.00523082
3714	0.00614053
3726	0.00477597
3738	0.00614053
3750	0.00689862
3762	0.00485178
3774	0.00614053
3786	0.00477597
3798	0.0050792
3810	0.00727766
3822	0.00576148
3834	0.00955193
3846	0.00833899
3858	0.0106891
3870	0.00818737
3882	0.00735347
3894	0.011523
3906	0.00902127
3918	0.00811156
3930	0.0106133
3942	0.00977936
3954	0.00962774
3966	0.00735347
