Infrared Spectrum: Benzene, undecyl-
Formula: C 17 H 28
CAS: 6742-54-7
Origin: Sadtler Research Labs Under US-EPA Contract
1/CM	ABSORBANCE
450	0
462	0.0176702
474	0.0135637
486	0.0179191
498	0.0204078
510	0.0187901
522	0.0180435
534	0.0144348
546	0.00908397
558	0.015057
570	0.0196612
582	0.0148081
594	0.0115727
606	0.00908397
618	0.0088351
630	0.011075
642	0.0102039
654	0.0136882
666	0.0163014
678	0.0343449
690	0.0881021
702	0.137753
714	0.0783959
726	0.0791426
738	0.108759
750	0.0774004
762	0.0384513
774	0.023021
786	0.0177946
798	0.0144348
810	0.0139371
822	0.0155547
834	0.0158036
846	0.0128171
858	0.0118216
870	0.0126927
882	0.0139371
894	0.0159281
906	0.0204078
918	0.0185413
930	0.0175458
942	0.0169236
954	0.0166747
966	0.0166747
978	0.0141859
990	0.0135637
1002	0.0155547
1014	0.0169236
1026	0.0273764
1038	0.0223988
1050	0.0179191
1062	0.0207811
1074	0.0206567
1086	0.017048
1098	0.0144348
1110	0.0144348
1122	0.0133149
1134	0.0103284
1146	0.0107017
1158	0.0133149
1170	0.0141859
1182	0.0176702
1194	0.017048
1206	0.0202834
1218	0.0199101
1230	0.0204078
1242	0.0196612
1254	0.0164258
1266	0.0195368
1278	0.0205323
1290	0.0222744
1302	0.0262564
1314	0.0276252
1326	0.0248876
1338	0.0307362
1350	0.0425578
1362	0.0398202
1374	0.0343449
1386	0.0304873
1398	0.0182924
1410	0.0159281
1422	0.0187901
1434	0.0306117
1446	0.0704319
1458	0.110501
1470	0.0895954
1482	0.0403179
1494	0.0624679
1506	0.035216
1518	0.0135637
1530	0.0114483
1542	0.0109505
1554	0.00933285
1566	0.0102039
1578	0.0146837
1590	0.0228966
1602	0.0393224
1614	0.0247632
1626	0.0108261
1638	0.0103284
1650	0.00958173
1662	0.00933285
1674	0.00958173
1686	0.0144348
1698	0.0275008
1710	0.0313584
1722	0.0331005
1734	0.0319806
1746	0.0154303
1758	0.0120705
1770	0.011075
1782	0.0107017
1794	0.0154303
1806	0.0111994
1818	0.00920841
1830	0.00783959
1842	0.00783959
1854	0.00920841
1866	0.0105772
1878	0.0109505
1890	0.00920841
1902	0.00746628
1914	0.00783959
1926	0.00970616
1938	0.0135637
1950	0.013066
1962	0.00933285
1974	0.00759072
1986	0.00734184
1998	0.00734184
2010	0.00759072
2022	0.00783959
2034	0.00846178
2046	0.00783959
2058	0.00783959
2070	0.00783959
2082	0.00746628
2094	0.00734184
2106	0.00746628
2118	0.00734184
2130	0.00759072
2142	0.00771516
2154	0.00808847
2166	0.00821291
2178	0.00821291
2190	0.00796403
2202	0.00771516
2214	0.00808847
2226	0.00796403
2238	0.00821291
2250	0.00833735
2262	0.00858622
2274	0.00833735
2286	0.00796403
2298	0.00858622
2310	0.00858622
2322	0.00821291
2334	0.0098306
2346	0.011075
2358	0.00895954
2370	0.0120705
2382	0.0103284
2394	0.00933285
2406	0.0088351
2418	0.00846178
2430	0.00821291
2442	0.00833735
2454	0.00871066
2466	0.00833735
2478	0.00871066
2490	0.0088351
2502	0.0088351
2514	0.00933285
2526	0.00995504
2538	0.0103284
2550	0.0104528
2562	0.0105772
2574	0.011075
2586	0.0116972
2598	0.0123194
2610	0.013066
2622	0.0136882
2634	0.0144348
2646	0.0151814
2658	0.0161769
2670	0.0172969
2682	0.0194123
2694	0.0194123
2706	0.019039
2718	0.0200345
2730	0.0206567
2742	0.0212789
2754	0.0200345
2766	0.0206567
2778	0.0225233
2790	0.0278741
2802	0.0347182
2814	0.0405668
2826	0.0512685
2838	0.0735429
2850	0.161769
2862	0.468136
2874	0.344444
2886	0.229464
2898	0.220629
2910	0.356266
2922	0.669352
2934	1.24438
2946	0.748743
2958	0.3432
2970	0.339467
2982	0.142108
2994	0.0751606
3006	0.0634634
3018	0.0679431
3030	0.126056
3042	0.102786
3054	0.0597302
3066	0.0912131
3078	0.0960661
3090	0.0657033
3102	0.0415623
3114	0.0304873
3126	0.0181679
3138	0.0138126
3150	0.013066
3162	0.013066
3174	0.0124438
3186	0.0111994
3198	0.0103284
3210	0.0100795
3222	0.00958173
3234	0.00933285
3246	0.00908397
3258	0.0088351
3270	0.0088351
3282	0.0088351
3294	0.00808847
3306	0.00858622
3318	0.00821291
3330	0.0088351
3342	0.0088351
3354	0.00908397
3366	0.00945729
3378	0.00945729
3390	0.00895954
3402	0.0088351
3414	0.00945729
3426	0.00895954
3438	0.00920841
3450	0.0088351
3462	0.00858622
3474	0.00920841
3486	0.00858622
3498	0.0088351
3510	0.00945729
3522	0.00796403
3534	0.00821291
3546	0.00833735
3558	0.0088351
3570	0.00871066
3582	0.0088351
3594	0.0088351
3606	0.00858622
3618	0.00895954
3630	0.00995504
3642	0.00945729
3654	0.0105772
3666	0.0098306
3678	0.00908397
3690	0.00808847
3702	0.00858622
3714	0.00846178
3726	0.00871066
3738	0.00908397
3750	0.00783959
3762	0.00808847
3774	0.00746628
3786	0.00821291
3798	0.00734184
3810	0.00920841
3822	0.00933285
3834	0.00796403
3846	0.00796403
3858	0.0088351
3870	0.0088351
3882	0.00945729
3894	0.00858622
3906	0.00895954
3918	0.00958173
3930	0.00908397
3942	0.00808847
3954	0.00958173
3966	0.00945729
