Infrared Spectrum: 2,5-Dimethyl-para-anisaldehyde
Formula: C 10 H 12 O 2
CAS: 6745-75-1
Origin: Sadtler Research Labs Under US-EPA Contract
1/CM	ABSORBANCE
450	0.0437466
462	0.0330494
474	0.00878125
486	0.00846193
498	0.0111761
510	0.0237892
522	0.0392761
534	0.0613091
546	0.0852579
558	0.0268227
570	0.00830227
582	0.00590738
594	0.0241085
606	0.027621
618	0.0249068
630	0.013092
642	0.0027142
654	0.00335284
666	0.0116551
678	0.0234699
690	0.00734431
702	0.00670568
714	0.00574772
726	0.00957954
738	0.0199574
750	0.047738
762	0.0549227
774	0.142416
786	0.100426
798	0.0475784
810	0.0343267
822	0.0247471
834	0.0395954
846	0.0807875
858	0.0550824
870	0.0268227
882	0.0485363
894	0.0510909
906	0.0327301
918	0.0132517
930	0.00574772
942	0.00510909
954	0.00989886
966	0.0180415
978	0.0273017
990	0.0453432
1002	0.0605108
1014	0.0715272
1026	0.0641829
1038	0.0463011
1050	0.0443852
1062	0.0635443
1074	0.152953
1086	0.486002
1098	0.900157
1110	0.667534
1122	0.14513
1134	0.0496539
1146	0.0365619
1158	0.0384778
1170	0.0364023
1182	0.0405534
1194	0.0541244
1206	0.0879721
1218	0.113837
1230	0.121979
1242	0.282277
1254	0.950131
1266	0.793984
1278	0.415912
1290	0.279403
1302	0.297445
1314	0.467641
1326	0.344384
1338	0.124055
1350	0.0836613
1362	0.0929215
1374	0.118148
1386	0.104098
1398	0.0745608
1410	0.0704096
1422	0.0728045
1434	0.0852579
1446	0.148004
1458	0.186162
1470	0.263916
1482	0.167802
1494	0.200532
1506	0.351729
1518	0.19175
1530	0.104417
1542	0.125652
1554	0.240127
1566	0.362107
1578	0.340712
1590	0.232304
1602	0.395954
1614	0.545235
1626	0.188078
1638	0.0598721
1650	0.0362426
1662	0.0504522
1674	0.0723255
1686	0.161894
1698	0.56631
1710	1.59659
1722	0.567428
1734	0.0496539
1746	0.0217136
1758	0.0199574
1770	0.0204364
1782	0.0185204
1794	0.0143693
1806	0.0169239
1818	0.0153273
1830	0.0105375
1842	0.00718466
1854	0.0102182
1866	0.00718466
1878	0.00846193
1890	0.00494943
1902	0.00431079
1914	0.00207557
1926	0.00239489
1938	0.00303352
1950	0.00223523
1962	0.00239489
1974	0.00431079
1986	0.00638636
1998	0.007025
2010	0.00750397
2022	0.00654602
2034	0.00686534
2046	0.00574772
2058	0.00670568
2070	0.00878125
2082	0.00910056
2094	0.0103778
2106	0.0124534
2118	0.0100585
2130	0.00463011
2142	0.00159659
2154	0.000319318
2166	0.000319318
2178	0
2190	0
2202	0.000159659
2214	0
2226	0.000319318
2238	0.00127727
2250	0.00143693
2262	0.00223523
2274	0.0035125
2286	0.00463011
2298	0.00574772
2310	0.00734431
2322	0.007025
2334	0.00638636
2346	0.00957954
2358	0.00383182
2370	0.00415113
2382	0.00287386
2394	0.0027142
2406	0.00319318
2418	0.0035125
2430	0.00383182
2442	0.00415113
2454	0.00367216
2466	0.0035125
2478	0.00287386
2490	0.00255454
2502	0.00319318
2514	0.00399148
2526	0.00367216
2538	0.00367216
2550	0.00463011
2562	0.00766363
2574	0.0114954
2586	0.014529
2598	0.0159659
2610	0.01405
2622	0.0119744
2634	0.0126131
2646	0.0124534
2658	0.0126131
2670	0.0161256
2682	0.0226716
2694	0.0554017
2706	0.208834
2718	0.249228
2730	0.109526
2742	0.102341
2754	0.110005
2766	0.0720062
2778	0.0530068
2790	0.0625863
2802	0.0721659
2814	0.0748801
2826	0.0989886
2838	0.18712
2850	0.21059
2862	0.156785
2874	0.136668
2886	0.110324
2898	0.105535
2910	0.129962
2922	0.176583
2934	0.274933
2946	0.333687
2958	0.256572
2970	0.217615
2982	0.16397
2994	0.132996
3006	0.181053
3018	0.172911
3030	0.0868545
3042	0.0581159
3054	0.0546034
3066	0.0538051
3078	0.0427886
3090	0.0288983
3102	0.0226716
3114	0.0212346
3126	0.0191591
3138	0.0119744
3150	0.00766363
3162	0.00670568
3174	0.00654602
3186	0.00558807
3198	0.00367216
3210	0.00223523
3222	0.00127727
3234	0.00127727
3246	0.00159659
3258	0.00127727
3270	0.00191591
3282	0.00175625
3294	0.00175625
3306	0.00239489
3318	0.00207557
3330	0.00191591
3342	0.00159659
3354	0.00207557
3366	0.00335284
3378	0.00734431
3390	0.0102182
3402	0.0169239
3414	0.0118148
3426	0.000638636
3438	0.000638636
3450	0.000638636
3462	0.00175625
3474	0.000638636
3486	0.00143693
3498	0.00143693
3510	0.00143693
3522	0.00159659
3534	0.00175625
3546	0.00159659
3558	0.00111761
3570	0.00207557
3582	0.00111761
3594	0.00159659
3606	0.000957954
3618	0.000638636
3630	0.00143693
3642	0.00143693
3654	0.00207557
3666	0.00159659
3678	0.00239489
3690	0.00111761
3702	0.00175625
3714	0.00175625
3726	0.00111761
3738	0.00287386
3750	0.000957954
3762	0.00191591
3774	0.00127727
3786	0
3798	0.00159659
3810	0.000798295
3822	0.00239489
3834	0.00111761
3846	0.00287386
3858	0.0027142
3870	0.00255454
3882	0.000957954
3894	0.00191591
3906	0.00159659
3918	0.00239489
3930	0.00175625
3942	0.00111761
3954	0.00111761
3966	0.00127727
