Infrared Spectrum: 2-Piperidinone
Formula: C 5 H 9 N O
CAS: 675-20-7
Origin: Sadtler Research Labs Under US-EPA Contract
1/CM	ABSORBANCE
450	0.0771742
462	0.0350001
474	0.071522
486	0.098696
498	0.0860872
510	0.0997829
522	0.110218
534	0.0656524
546	0.0584784
558	0.0434784
570	0.0378262
582	0.0347827
594	0.0500002
606	0.0843481
618	0.14087
630	0.208479
642	0.198479
654	0.155218
666	0.100435
678	0.0582611
690	0.037174
702	0.0284784
714	0.0232609
726	0.0228262
738	0.0336958
750	0.0295653
762	0.0358697
774	0.0380436
786	0.0252175
798	0.0195653
810	0.0265218
822	0.0267392
834	0.0223914
846	0.0152174
858	0.00978264
870	0.015
882	0.00978264
894	0.0191305
906	0.0234783
918	0.0547828
930	0.0823916
942	0.0702176
954	0.0336958
966	0.0234783
978	0.0302175
990	0.0345653
1002	0.0297827
1014	0.0178261
1026	0.0136957
1038	0.0234783
1050	0.0480436
1062	0.0613045
1074	0.0519567
1086	0.0519567
1098	0.101087
1110	0.0997829
1122	0.082609
1134	0.064348
1146	0.123479
1158	0.198696
1170	0.198262
1182	0.108913
1194	0.0508697
1206	0.0273914
1218	0.0302175
1230	0.0486958
1242	0.0736959
1254	0.096522
1266	0.125653
1278	0.208044
1290	0.324784
1302	0.325871
1314	0.27587
1326	0.215435
1338	0.34261
1350	0.31761
1362	0.261523
1374	0.128261
1386	0.098696
1398	0.0773916
1410	0.0841307
1422	0.143479
1434	0.189131
1446	0.212392
1458	0.244566
1470	0.169131
1482	0.152827
1494	0.0945655
1506	0.0726089
1518	0.042174
1530	0.0280436
1542	0.017174
1554	0.0115218
1566	0.011087
1578	0.0141305
1590	0.0141305
1602	0.0195653
1614	0.0280436
1626	0.038261
1638	0.0391306
1650	0.043261
1662	0.0645654
1674	0.114566
1686	0.353262
1698	1.16218
1710	2.12957
1722	1.83196
1734	0.995003
1746	0.339566
1758	0.137392
1770	0.0647828
1782	0.0541306
1794	0.0545654
1806	0.0556524
1818	0.0419567
1830	0.0323914
1842	0.0206522
1854	0.012174
1866	0.0113044
1878	0.00673915
1890	0.00673915
1902	0.00608698
1914	0.00673915
1926	0.00717394
1938	0.00565219
1950	0.0028261
1962	0.00152174
1974	0.00304349
1986	0.00326088
1998	0.0026087
2010	0.00108696
2022	0.00239131
2034	0.0028261
2046	0.00391306
2058	0.00369566
2070	0.00326088
2082	0.0028261
2094	0.00413045
2106	0.00326088
2118	0.00195653
2130	0.000434784
2142	0.000217392
2154	0.000434784
2166	0.000434784
2178	0.00130435
2190	0.00173914
2202	0.00326088
2214	0.00326088
2226	0.0026087
2238	0.00130435
2250	0.00152174
2262	0.00195653
2274	0.00239131
2286	0.00239131
2298	0.00195653
2310	0.00130435
2322	0.00173914
2334	0.00152174
2346	0.00173914
2358	0.0026087
2370	0.00304349
2382	0.00130435
2394	0.000869568
2406	0.000434784
2418	0.000869568
2430	0.000434784
2442	0.00130435
2454	0.00173914
2466	0.0026087
2478	0.0028261
2490	0.00239131
2502	0.00173914
2514	0.00130435
2526	0.00173914
2538	0.00152174
2550	0.00173914
2562	0.00195653
2574	0.00195653
2586	0.00195653
2598	0.0026087
2610	0.00369566
2622	0.00434784
2634	0.00369566
2646	0.00521741
2658	0.00521741
2670	0.00565219
2682	0.00652176
2694	0.00739133
2706	0.00717394
2718	0.00782611
2730	0.0082609
2742	0.00934786
2754	0.0106522
2766	0.015
2778	0.0223914
2790	0.0306523
2802	0.0365219
2814	0.0423914
2826	0.0500002
2838	0.0669567
2850	0.128479
2862	0.229349
2874	0.29174
2886	0.249783
2898	0.17174
2910	0.166087
2922	0.255001
2934	0.394132
2946	0.605002
2958	0.619132
2970	0.421958
2982	0.180653
2994	0.0954351
3006	0.0419567
3018	0.0200001
3030	0.0154348
3042	0.0126087
3054	0.0115218
3066	0.0108696
3078	0.00978264
3090	0.00717394
3102	0.00565219
3114	0.00565219
3126	0.00478262
3138	0.00652176
3150	0.00782611
3162	0.00891307
3174	0.00847829
3186	0.00586958
3198	0.00478262
3210	0.00652176
3222	0.00608698
3234	0.00565219
3246	0.00586958
3258	0.00565219
3270	0.00586958
3282	0.00608698
3294	0.00434784
3306	0.00478262
3318	0.00391306
3330	0.00521741
3342	0.00391306
3354	0.00521741
3366	0.00565219
3378	0.00717394
3390	0.0141305
3402	0.0273914
3414	0.0521741
3426	0.108696
3438	0.112174
3450	0.0934786
3462	0.0360871
3474	0.0134783
3486	0.0102174
3498	0.00391306
3510	0.00869568
3522	0.00673915
3534	0.00717394
3546	0.00891307
3558	0.00695654
3570	0.0108696
3582	0.00565219
3594	0.00652176
3606	0.00326088
3618	0.00869568
3630	0.00565219
3642	0.0054348
3654	0.00565219
3666	0.00239131
3678	0.00586958
3690	0.00239131
3702	0.00608698
3714	0.0106522
3726	0.0136957
3738	0.00891307
3750	0.00108696
3762	0.00673915
3774	0.00434784
3786	0.0054348
3798	0.00456523
3810	0.00413045
3822	0.00847829
3834	0.00586958
3846	0.00652176
3858	0.01
3870	0.0082609
3882	0.0108696
3894	0.0102174
3906	0.0126087
3918	0.00956525
3930	0.0143479
3942	0.0126087
3954	0.00978264
3966	0.00978264
