Infrared Spectrum: Propionic acid, 3-(p-chlorophenoxy)-, ethyl ester
Formula: C 11 H 13 Cl O 3
CAS: 67829-74-7
Origin: Sadtler Research Labs Under US-EPA Contract
1/CM	ABSORBANCE
450	0.0136118
462	0.0177591
474	0.0493427
486	0.0269045
498	0.0314772
510	0.0353055
522	0.0346675
534	0.036688
546	0.0219065
558	0.0183972
570	0.0093581
582	0.0155259
594	0.0171211
606	0.0189289
618	0.0354119
630	0.0706111
642	0.0767789
654	0.0824151
666	0.101982
678	0.0525329
690	0.0403036
702	0.028287
714	0.0279679
726	0.0266918
738	0.0177591
750	0.0238206
762	0.0173337
774	0.0220128
786	0.0361563
798	0.0541281
810	0.0844355
822	0.195244
834	0.168446
846	0.074014
858	0.0588071
870	0.0312645
882	0.0284997
894	0.0348802
906	0.0400909
918	0.0472158
930	0.0395592
942	0.0356246
954	0.024884
966	0.0240333
978	0.0330724
990	0.048811
1002	0.109745
1014	0.211621
1026	0.337423
1038	0.503848
1050	0.352417
1062	0.193861
1074	0.178761
1086	0.189076
1098	0.359117
1110	0.154621
1122	0.0952824
1134	0.085818
1146	0.134204
1158	0.313071
1170	0.775233
1182	0.843824
1194	0.622101
1206	0.439086
1218	0.545534
1230	0.819259
1242	0.854245
1254	0.51629
1266	0.428558
1278	0.398676
1290	0.309562
1302	0.224913
1314	0.202156
1326	0.182696
1338	0.133353
1350	0.134097
1362	0.107405
1374	0.155897
1386	0.168127
1398	0.170254
1410	0.115487
1422	0.0988981
1434	0.0801819
1446	0.0807136
1458	0.10815
1470	0.25554
1482	0.387298
1494	1.06342
1506	0.221617
1518	0.0702921
1530	0.0425368
1542	0.0355182
1554	0.0312645
1566	0.0361563
1578	0.069335
1590	0.113042
1602	0.121868
1614	0.0414734
1626	0.0250967
1638	0.020524
1650	0.0175464
1662	0.0185035
1674	0.0190352
1686	0.0270109
1698	0.037326
1710	0.0527456
1722	0.0930493
1734	0.187481
1746	0.42473
1758	0.716639
1770	0.438873
1782	0.147709
1794	0.0646559
1806	0.0333914
1818	0.0218001
1830	0.0187162
1842	0.0187162
1854	0.016164
1866	0.0210557
1878	0.0194606
1890	0.0165894
1902	0.0106342
1914	0.00999615
1926	0.0093581
1938	0.00893273
1950	0.00850736
1962	0.00744394
1974	0.00552978
1986	0.00499807
1998	0.00638052
2010	0.00765662
2022	0.00999615
2034	0.0122293
2046	0.012761
2058	0.0114849
2070	0.0119103
2082	0.0103152
2094	0.00829468
2106	0.00584881
2118	0.00446636
2130	0.0032966
2142	0.00159513
2154	0.00138245
2166	0.00053171
2178	0.00053171
2190	0.000319026
2202	0.00053171
2214	0.00148879
2226	0.00170147
2238	0.0020205
2250	0.00212684
2262	0.00340294
2274	0.00382831
2286	0.00446636
2298	0.00393465
2310	0.00350929
2322	0.00223318
2334	0.00255221
2346	0.000212684
2358	0.00223318
2370	0.00308392
2382	0.00425368
2394	0.00467905
2406	0.00446636
2418	0.00457271
2430	0.00425368
2442	0.00414734
2454	0.00436002
2466	0.00510442
2478	0.00510442
2490	0.00521076
2502	0.00563613
2514	0.00616784
2526	0.00552978
2538	0.0053171
2550	0.00425368
2562	0.00308392
2574	0.00308392
2586	0.00255221
2598	0.00233952
2610	0.00180781
2622	0.00170147
2634	0.00170147
2646	0.00180781
2658	0.00191416
2670	0.00223318
2682	0.00233952
2694	0.00308392
2706	0.00287123
2718	0.00361563
2730	0.00499807
2742	0.00648686
2754	0.00680589
2766	0.00755028
2778	0.00755028
2790	0.00691223
2802	0.00808199
2814	0.0107405
2826	0.0135054
2838	0.0136118
2850	0.0162703
2862	0.0218001
2874	0.0348802
2886	0.0666764
2898	0.0789058
2910	0.074014
2922	0.073695
2934	0.102195
2946	0.142286
2958	0.114424
2970	0.121017
2982	0.173231
2994	0.189289
3006	0.107086
3018	0.0558296
3030	0.033285
3042	0.0343485
3054	0.0336041
3066	0.0213747
3078	0.0213747
3090	0.0246713
3102	0.0298821
3114	0.0177591
3126	0.00829468
3138	0.00563613
3150	0.0053171
3162	0.00467905
3174	0.00446636
3186	0.00372197
3198	0.00287123
3210	0.00361563
3222	0.00297758
3234	0.00308392
3246	0.00233952
3258	0.00159513
3270	0.00180781
3282	0.0020205
3294	0.00255221
3306	0.00255221
3318	0.00319026
3330	0.00223318
3342	0.00265855
3354	0.00212684
3366	0.00223318
3378	0.00255221
3390	0.00170147
3402	0.00233952
3414	0.0020205
3426	0.00223318
3438	0.00265855
3450	0.00297758
3462	0.004041
3474	0.00489173
3486	0.00712491
3498	0.00755028
3510	0.00606149
3522	0.00393465
3534	0.00191416
3546	0.00297758
3558	0.00233952
3570	0.00276489
3582	0.00159513
3594	0.00425368
3606	0.00180781
3618	0.00265855
3630	0.00489173
3642	0.00297758
3654	0.0107405
3666	0.00297758
3678	0.00319026
3690	0.00563613
3702	0.00319026
3714	0.00552978
3726	0.00255221
3738	0.00382831
3750	0.00957078
3762	0.00223318
3774	0.00287123
3786	0.00319026
3798	0.00521076
3810	0.000319026
3822	0.00574247
3834	0.00436002
3846	0.00436002
3858	0.00563613
3870	0.00308392
3882	0.00308392
3894	0.00584881
3906	0.0086137
3918	0.00350929
3930	0.00287123
3942	0.00319026
3954	0.00744394
3966	0.00669955
