Infrared Spectrum: Hexamethylphosphoric triamide
Formula: C 6 H 18 N 3 O P
CAS: 680-31-9
Origin: Sadtler Research Labs Under US-EPA Contract
1/CM	ABSORBANCE
450	0.00324249
462	0.0116841
474	0.0572467
486	0.107785
498	0.039413
510	0.0124109
522	0.00771489
534	0.00877709
546	0.00525507
558	0.00514326
570	0.00570231
582	0.00603774
594	0.00793851
606	0.00575821
618	0.00564641
630	0.0116282
642	0.00832985
654	0.00424878
666	0.00212439
678	0.00581412
690	0.00866528
702	0.0136967
714	0.0295737
726	0.109909
738	0.372886
750	0.169113
762	0.0252132
774	0.00788261
786	0
798	0.00324249
810	0.0044165
822	0.00318659
834	0.00346611
846	0.00318659
858	0.00396925
870	0.00402516
882	0.00497555
894	0.00553459
906	0.00726765
918	0.0108456
930	0.0199581
942	0.0483578
954	0.13993
966	0.377582
978	0.557652
990	0.456408
1002	0.199693
1014	0.0682041
1026	0.0366178
1038	0.0302446
1050	0.0372327
1062	0.05652
1074	0.0562963
1086	0.031195
1098	0.0208526
1110	0.0186164
1122	0.0189518
1134	0.0233683
1146	0.0432146
1158	0.0735151
1170	0.0978897
1182	0.0971629
1194	0.0907338
1206	0.0808945
1218	0.10594
1230	0.216464
1242	0.292439
1254	0.120084
1266	0.0880504
1278	0.165926
1290	0.26689
1302	0.232956
1314	0.100294
1326	0.0438854
1338	0.0285116
1350	0.0221384
1362	0.0195108
1374	0.0168274
1386	0.0139203
1398	0.0136967
1410	0.0136967
1422	0.017051
1434	0.0300769
1446	0.0480783
1458	0.0666388
1470	0.0766458
1482	0.0660797
1494	0.0476311
1506	0.0242069
1518	0.0147589
1530	0.0114046
1542	0.0115723
1554	0.0119078
1566	0.0107897
1578	0.0107897
1590	0.0106219
1602	0.0102865
1614	0.00995109
1626	0.00732355
1638	0.00626136
1650	0.00436059
1662	0.00408107
1674	0.0034102
1686	0.00408107
1698	0.00464012
1710	0.00603774
1722	0.00603774
1734	0.00592593
1746	0.00419288
1758	0.00307478
1770	0.00257163
1782	0.00313068
1794	0.0022362
1806	0.00173306
1818	0.00128582
1830	0.0011181
1842	0.00134172
1854	0.000726765
1866	0.00106219
1878	0.00106219
1890	0.00134172
1902	0.0021803
1914	0.00324249
1926	0.00346611
1938	0.00240391
1950	0.00150943
1962	0.0011181
1974	0.00100629
1986	0.00078267
1998	0.00100629
2010	0.00145353
2022	0.00240391
2034	0.00251572
2046	0.00201258
2058	0.00162125
2070	0.00100629
2082	0.000838575
2094	0.0011181
2106	0.00100629
2118	0.00150943
2130	0.00173306
2142	0.00212439
2154	0.00206849
2166	0.00201258
2178	0.00173306
2190	0.00150943
2202	0.00139762
2214	0.00139762
2226	0.00139762
2238	0.00117401
2250	0.0011181
2262	0.00100629
2274	0.000838575
2286	0.000726765
2298	0.00055905
2310	0.000391335
2322	0.000167715
2334	0.000503145
2346	0.00195668
2358	0.00156534
2370	0.00273935
2382	0.00229211
2394	0.00212439
2406	0.00212439
2418	0.00178896
2430	0.00190077
2442	0.00206849
2454	0.00206849
2466	0.00251572
2478	0.00245982
2490	0.00268344
2502	0.00257163
2514	0.00245982
2526	0.00273935
2538	0.00257163
2550	0.00245982
2562	0.0022362
2574	0.00268344
2586	0.00257163
2598	0.00296297
2610	0.00290706
2622	0.00296297
2634	0.00301887
2646	0.00307478
2658	0.00329839
2670	0.00346611
2682	0.00385745
2694	0.00430468
2706	0.00508736
2718	0.00631726
2730	0.0077708
2742	0.0104542
2754	0.0136967
2766	0.018225
2778	0.0268903
2790	0.0486374
2802	0.114158
2814	0.14334
2826	0.0866528
2838	0.0909015
2850	0.168833
2862	0.180405
2874	0.182753
2886	0.260461
2898	0.303452
2910	0.264319
2922	0.218141
2934	0.20478
2946	0.160671
2958	0.096492
2970	0.0611042
2982	0.0517121
2994	0.0703285
3006	0.0756954
3018	0.0438854
3030	0.0255486
3042	0.0190077
3054	0.0152621
3066	0.0133613
3078	0.011796
3090	0.0101188
3102	0.00838575
3114	0.00732355
3126	0.00581412
3138	0.00475192
3150	0.00408107
3162	0.00368973
3174	0.00329839
3186	0.00285116
3198	0.00229211
3210	0.0021803
3222	0.00162125
3234	0.00229211
3246	0.00190077
3258	0.00145353
3270	0.00167715
3282	0.0011181
3294	0.00139762
3306	0.000838575
3318	0.00117401
3330	0.000838575
3342	0.00145353
3354	0.00167715
3366	0.00139762
3378	0.00167715
3390	0.00201258
3402	0.00100629
3414	0.00173306
3426	0.00178896
3438	0.00178896
3450	0.00201258
3462	0.00150943
3474	0.00167715
3486	0.00262753
3498	0.00122991
3510	0.00156534
3522	0.00212439
3534	0.00156534
3546	0.00212439
3558	0.00156534
3570	0.00201258
3582	0.00173306
3594	0.00195668
3606	0.00162125
3618	0.00195668
3630	0.00011181
3642	0.00167715
3654	0.00240391
3666	0.00117401
3678	0.00117401
3690	0.00212439
3702	0.00167715
3714	0.00117401
3726	0.00122991
3738	0.00206849
3750	0.000838575
3762	0.00156534
3774	0.00178896
3786	0.00212439
3798	0.00273935
3810	0.00067086
3822	0.00128582
3834	0.00134172
3846	0.000950385
3858	0.0021803
3870	0.0022362
3882	0.00089448
3894	0.00268344
3906	0.00134172
3918	0.0021803
3930	0.00273935
3942	0.00251572
3954	0.00318659
3966	0.00262753
