Infrared Spectrum: Diethyl isopropylidenemalonate
Formula: C 10 H 16 O 4
CAS: 6802-75-1
Origin: Sadtler Research Labs Under US-EPA Contract
1/CM	ABSORBANCE
450	0.0242575
462	0.0192387
474	0
486	0.0142199
498	0.0132639
510	0.00967909
522	0.0142199
534	0.0129055
546	0.0137419
558	0.0184022
570	0.0207921
582	0.0138614
594	0.0136224
606	0.0144589
618	0.012308
630	0.0102766
642	0.0121885
654	0.0107545
666	0.011352
678	0.012547
690	0.011113
702	0.0218676
714	0.024616
726	0.0368045
738	0.0235405
750	0.0387164
762	0.0401503
774	0.035251
786	0.0424207
798	0.0414648
810	0.0304712
822	0.0348925
834	0.0334586
846	0.0283203
858	0.0329806
870	0.0541312
882	0.0378799
894	0.0271254
906	0.023182
918	0.0340561
930	0.0334586
942	0.0264084
954	0.0276033
966	0.0387164
978	0.0472005
990	0.0426597
1002	0.0572381
1014	0.0822126
1026	0.125589
1038	0.183664
1050	0.377963
1062	0.623525
1074	0.303637
1086	0.227279
1098	0.348686
1110	0.495307
1122	0.299454
1134	0.153312
1146	0.125589
1158	0.126426
1170	0.135627
1182	0.18211
1194	0.371151
1206	0.618028
1218	0.530677
1230	0.864427
1242	1.13257
1254	0.582299
1266	0.284757
1278	0.365296
1290	0.403176
1302	0.313077
1314	0.267071
1326	0.136941
1338	0.0761183
1350	0.0592695
1362	0.0952375
1374	0.169683
1386	0.14674
1398	0.0912942
1410	0.0690681
1422	0.0583136
1434	0.0718165
1446	0.0941621
1458	0.095357
1470	0.0996588
1482	0.0744454
1494	0.0391944
1506	0.0286788
1518	0.0268864
1530	0.0293958
1542	0.0158928
1554	0.0258109
1566	0.0270059
1578	0.0272449
1590	0.0262889
1602	0.0256914
1614	0.0394333
1626	0.0656028
1638	0.120092
1650	0.133237
1662	0.0881873
1674	0.0620179
1686	0.0550872
1698	0.0831685
1710	0.149727
1722	0.334705
1734	0.831327
1746	0.924652
1758	0.492558
1770	0.208638
1782	0.104439
1794	0.0641688
1806	0.0510244
1818	0.0547287
1830	0.0345341
1842	0.0207921
1854	0.0126665
1866	0.00967909
1878	0.0102766
1890	0.0100376
1902	0.0114715
1914	0.0103961
1926	0.0106351
1938	0.0105156
1950	0.00848415
1962	0.00800616
1974	0.00884263
1986	0.0070502
1998	0.00681121
2010	0.00657222
2022	0.00597475
2034	0.00537727
2046	0.00585525
2058	0.00657222
2070	0.00764768
2082	0.00824515
2094	0.00860364
2106	0.00872313
2118	0.00740869
2130	0.00609424
2142	0.00597475
2154	0.00513828
2166	0.00466031
2178	0.00466031
2190	0.00442131
2202	0.00489929
2214	0.00537727
2226	0.0047798
2238	0.00489929
2250	0.00513828
2262	0.00537727
2274	0.00573576
2286	0.00872313
2298	0.0142199
2310	0.0188802
2322	0.0145784
2334	0.00788667
2346	0.0135029
2358	0.0105156
2370	0.00800616
2382	0.012308
2394	0.00406283
2406	0.00346535
2418	0.00382384
2430	0.00370434
2442	0.00310687
2454	0.00370434
2466	0.00358485
2478	0.00286788
2490	0.00286788
2502	0.00227041
2514	0.00215091
2526	0.0023899
2538	0.00167293
2550	0.00119495
2562	0.00203141
2574	0.00155343
2586	0.00191192
2598	0.0023899
2610	0.00203141
2622	0.00250939
2634	0.00262889
2646	0.00203141
2658	0.00250939
2670	0.00286788
2682	0.00286788
2694	0.00358485
2706	0.00394334
2718	0.00466031
2730	0.00776717
2742	0.00967909
2754	0.00872313
2766	0.00920111
2778	0.00967909
2790	0.00872313
2802	0.011113
2814	0.0136224
2826	0.0163708
2838	0.0191192
2850	0.0252134
2862	0.0390749
2874	0.0536533
2886	0.071936
2898	0.0750429
2910	0.0990614
2922	0.132042
2934	0.166576
2946	0.186771
2958	0.145425
2970	0.156777
2982	0.252732
2994	0.251656
3006	0.14674
3018	0.0846025
3030	0.0495904
3042	0.0351315
3054	0.0282008
3066	0.0235405
3078	0.0210311
3090	0.0181632
3102	0.0139809
3114	0.0132639
3126	0.0109935
3138	0.00920111
3150	0.00967909
3162	0.00824515
3174	0.00824515
3186	0.00920111
3198	0.00728919
3210	0.0070502
3222	0.00681121
3234	0.00609424
3246	0.00633323
3258	0.00609424
3270	0.00489929
3282	0.00573576
3294	0.00597475
3306	0.00501879
3318	0.00573576
3330	0.00669172
3342	0.00585525
3354	0.00633323
3366	0.0071697
3378	0.00764768
3390	0.00824515
3402	0.0071697
3414	0.00896212
3426	0.00908162
3438	0.00991809
3450	0.011352
3462	0.0141004
3474	0.013025
3486	0.011591
3498	0.00967909
3510	0.00800616
3522	0.00836465
3534	0.00728919
3546	0.00824515
3558	0.00800616
3570	0.0100376
3582	0.00752818
3594	0.0071697
3606	0.00860364
3618	0.00489929
3630	0.00752818
3642	0.00728919
3654	0.00513828
3666	0.0095596
3678	0.00119495
3690	0.00728919
3702	0.00932061
3714	0.00597475
3726	0.00669172
3738	0.00657222
3750	0.011113
3762	0.00597475
3774	0.00812566
3786	0.00824515
3798	0.00860364
3810	0.0094401
3822	0.00310687
3834	0.0095596
3846	0.0137419
3858	0.00585525
3870	0.0071697
3882	0.0112325
3894	0.00836465
3906	0.0101571
3918	0.013025
3930	0.00693071
3942	0.013025
3954	0.013025
3966	0.0135029
