Infrared Spectrum: Diethyl vinylphosphonate
Formula: C 6 H 13 O 3 P
CAS: 682-30-4
Origin: Sadtler Research Labs Under US-EPA Contract
1/CM	ABSORBANCE
450	0.00784586
462	0.0173286
474	0.0337541
486	0.0173286
498	0.0282225
510	0.0412613
522	0.036915
534	0.0274323
546	0.0122486
558	0.00886187
570	0.00694274
582	0.0211669
594	0.0382697
606	0.0231424
618	0.0184575
630	0.0115148
642	0.00750718
654	0.00801519
666	0.00496716
678	0.00237069
690	0.00722496
702	0.0269243
714	0.0308754
726	0.0229731
738	0.0182882
750	0.0132646
762	0.029295
774	0.104536
786	0.203597
798	0.15878
810	0.0807728
822	0.038947
834	0.0165948
846	0.0124179
858	0.0141677
870	0.00925698
882	0.0104423
894	0.0134339
906	0.0247794
918	0.0427289
930	0.0959565
942	0.205742
954	0.260719
966	0.223184
978	0.146023
990	0.106117
1002	0.0819581
1014	0.145967
1026	0.35645
1038	0.546839
1050	0.433667
1062	0.341379
1074	0.245592
1086	0.136597
1098	0.115938
1110	0.0838773
1122	0.053397
1134	0.0433498
1146	0.0430675
1158	0.0419951
1170	0.0434626
1182	0.0317221
1194	0.0186833
1206	0.0145628
1218	0.0120792
1230	0.0171028
1242	0.0351652
1254	0.0932471
1266	0.170577
1278	0.181358
1290	0.120228
1302	0.0637264
1314	0.0310447
1326	0.0164255
1338	0.00965209
1350	0.00931343
1362	0.0149015
1374	0.0249487
1386	0.0394551
1398	0.074959
1410	0.0524374
1422	0.0206589
1434	0.0167642
1446	0.0155788
1458	0.0144499
1470	0.0115712
1482	0.00897475
1494	0.00762007
1506	0.00553161
1518	0.00587028
1530	0.00372537
1542	0.0022578
1554	0.00412049
1566	0.00146757
1578	0.00270936
1590	0.00428982
1602	0.00485427
1614	0.0079023
1626	0.00406404
1638	0.00248358
1650	0.00191913
1662	0.00282225
1674	0.00412049
1686	0.00101601
1698	0.00197557
1710	0.00203202
1722	0.00242713
1734	0.00530583
1746	0.00603961
1758	0.00609606
1770	0.00389471
1782	0.0045156
1794	0.00378182
1806	0.00316092
1818	0.00587028
1830	0.00581383
1842	0.00609606
1854	0.00485427
1866	0.00530583
1878	0.00395115
1890	0.00304803
1902	0.00383826
1914	0.00242713
1926	0.00293514
1938	0.00406404
1950	0.00434627
1962	0.0040076
1974	0.00299159
1986	0.00237069
1998	0.00129824
2010	0.000959565
2022	0.00158046
2034	0.00107245
2046	0.0016369
2058	0.00129824
2070	0.00118534
2082	0.00118534
2094	0.00118534
2106	0.00237069
2118	0.00124179
2130	0.00174979
2142	0.00174979
2154	0.00079023
2166	0.0016369
2178	0.00197557
2190	0.00197557
2202	0.00152401
2214	0.00158046
2226	0.00158046
2238	0.000620895
2250	0.00237069
2262	0.00169335
2274	0.00174979
2286	0.00242713
2298	0.00129824
2310	0.00107245
2322	0.00090312
2334	0.00327381
2346	0.00158046
2358	0.000395115
2370	0.00541872
2382	0.00214491
2394	0.00208846
2406	0.00316092
2418	0.00231424
2430	0.00231424
2442	0.00197557
2454	0.00242713
2466	0.00191913
2478	0.00220135
2490	0.00248358
2502	0.00107245
2514	0.00259647
2526	0.00259647
2538	0.00237069
2550	0.00265292
2562	0.00321736
2574	0.00321736
2586	0.00203202
2598	0.00265292
2610	0.0028787
2622	0.00191913
2634	0.0028787
2646	0.00276581
2658	0.00197557
2670	0.00254003
2682	0.00259647
2694	0.00276581
2706	0.00242713
2718	0.0040076
2730	0.00355603
2742	0.00310447
2754	0.00479783
2766	0.00395115
2778	0.00570094
2790	0.00570094
2802	0.00462849
2814	0.00445916
2826	0.00457205
2838	0.0067734
2850	0.00626539
2862	0.0103859
2874	0.0186833
2886	0.0240456
2898	0.0291256
2910	0.0416564
2922	0.0442529
2934	0.0568966
2946	0.070782
2958	0.057461
2970	0.0637829
2982	0.108318
2994	0.110237
3006	0.0653633
3018	0.0438013
3030	0.026134
3042	0.0150144
3054	0.00976499
3066	0.0079023
3078	0.00784586
3090	0.0109503
3102	0.0111761
3114	0.00423338
3126	0.00417693
3138	0.00491071
3150	0.00485427
3162	0.00491071
3174	0.00395115
3186	0.00485427
3198	0.00321736
3210	0.0033867
3222	0.00558805
3234	0.00270936
3246	0.00248358
3258	0.00321736
3270	0.00259647
3282	0.00231424
3294	0.00316092
3306	0.00491071
3318	0.00186268
3330	0.00378182
3342	0.00423338
3354	0.00276581
3366	0.00423338
3378	0.00434627
3390	0.00389471
3402	0.00248358
3414	0.00316092
3426	0.00440271
3438	0.00135468
3450	0.0045156
3462	0.00361248
3474	0.0011289
3486	0.00304803
3498	0.00214491
3510	0.00457205
3522	0.00344314
3534	0.00519294
3546	0.00462849
3558	0.00214491
3570	0.00654762
3582	0.00378182
3594	0.00366892
3606	0.00468494
3618	0.00395115
3630	0.00349959
3642	0.00169335
3654	0.00389471
3666	0.00299159
3678	0.00299159
3690	0.00513649
3702	0.00203202
3714	0.00304803
3726	0.00496716
3738	0.00440271
3750	0.00508005
3762	0.0050236
3774	0.00496716
3786	0.00282225
3798	0.00378182
3810	0.00508005
3822	0.00214491
3834	0.00417693
3846	0.0028787
3858	0.00231424
3870	0.00174979
3882	0.00248358
3894	0.00491071
3906	0.000620895
3918	0.00530583
3930	0.00626539
3942	0.00197557
3954	0
3966	0.00045156
