Infrared Spectrum: Cyclohexane, 1-dodecyl-4-octyl-,
Formula: C 26 H 52
CAS: 6836-35-7
Origin: Sadtler Research Labs Under US-EPA Contract
1/CM	ABSORBANCE
450	0.0157653
462	0.0071972
474	0.00239907
486	0.00651176
498	0.00574063
510	0.00479814
522	0.00454109
534	0.00479814
546	0.00351292
558	0.00154226
570	0.0035986
582	0.00342724
594	0.00222771
606	0.00222771
618	0.00162794
630	0.0017993
642	0.00274179
654	0.00145658
666	0.00274179
678	0.00394133
690	0.0071972
702	0.0157653
714	0.0368428
726	0.0373569
738	0.0221914
750	0.013966
762	0.0107958
774	0.00831106
786	0.00522654
798	0.00376996
810	0.00616903
822	0.00394133
834	0.00231339
846	0.00257043
858	0.00282747
870	0.00394133
882	0.00771129
894	0.0191925
906	0.00779697
918	0.00248475
930	0.00462677
942	0.00908219
954	0.00753993
966	0.00282747
978	0.00102817
990	0.000685448
1002	0.00162794
1014	0.00419837
1026	0.00445541
1038	0.00402701
1050	0.00462677
1062	0.0053979
1074	0.00642607
1086	0.00685448
1098	0.010196
1110	0.00839674
1122	0.00522654
1134	0.00128521
1146	0.000428405
1158	0.000257043
1170	0.00128521
1182	0.00171362
1194	0.00257043
1206	0.00445541
1218	0.00925355
1230	0.00745425
1242	0.0102817
1254	0.0146515
1266	0.0185928
1278	0.0206491
1290	0.0251045
1302	0.0288745
1314	0.0268182
1326	0.024162
1338	0.0370999
1350	0.0467818
1362	0.0468675
1374	0.0466105
1386	0.0351292
1398	0.0245048
1410	0.0272466
1422	0.0372712
1434	0.0682878
1446	0.158424
1458	0.176417
1470	0.114041
1482	0.0369285
1494	0.0242477
1506	0.0153369
1518	0.00976763
1530	0.00608335
1542	0.0049695
1554	0.00376996
1566	0.00257043
1578	0.00291315
1590	0.00239907
1602	0.00334156
1614	0.00257043
1626	0.00171362
1638	0.00197066
1650	0.00102817
1662	0.00162794
1674	0.000685448
1686	0.00145658
1698	0.00128521
1710	0.00145658
1722	0.00291315
1734	0.00565495
1746	0.0049695
1758	0.00445541
1770	0.00565495
1782	0.00582631
1794	0.00548358
1806	0.00445541
1818	0.00385564
1830	0.00299884
1842	0.00239907
1854	0.00231339
1866	0.00197066
1878	0.00188498
1890	0.00145658
1902	0.00154226
1914	0.00119953
1926	0.00102817
1938	0.00085681
1950	0.00085681
1962	0.00085681
1974	0.000514086
1986	0.000685448
1998	0.000428405
2010	0.00085681
2022	0.00171362
2034	0.00197066
2046	0.0017993
2058	0.00154226
2070	0.00085681
2082	0.000685448
2094	0.000257043
2106	0
2118	0.000171362
2130	8.5681e-05
2142	0.000514086
2154	0.000599767
2166	0.000685448
2178	0.000514086
2190	0.000685448
2202	0.000342724
2214	0.000514086
2226	0.000257043
2238	8.5681e-05
2250	0.000514086
2262	0.000599767
2274	0.00119953
2286	0.00291315
2298	0.00608335
2310	0.00882514
2322	0.00848242
2334	0.0053979
2346	0.00745425
2358	0.00753993
2370	0.0053979
2382	0.00736857
2394	0.00325588
2406	0.00299884
2418	0.0031702
2430	0.00299884
2442	0.00291315
2454	0.00299884
2466	0.00291315
2478	0.0035986
2490	0.00394133
2502	0.00514086
2514	0.00694016
2526	0.00831106
2538	0.00933923
2550	0.0101104
2562	0.0111385
2574	0.0129378
2586	0.0148228
2598	0.0170505
2610	0.0197923
2622	0.0223627
2634	0.0248475
2646	0.0272466
2658	0.0301597
2670	0.0335013
2682	0.0344438
2694	0.0324731
2706	0.031959
2718	0.0340154
2730	0.0363287
2742	0.0382137
2754	0.0398417
2766	0.04404
2778	0.0538933
2790	0.0699157
2802	0.0887655
2814	0.11387
2826	0.156968
2838	0.259442
2850	0.456508
2862	0.490781
2874	0.360631
2886	0.350607
2898	0.435859
2910	0.575005
2922	0.784924
2934	0.80463
2946	0.476729
2958	0.355062
2970	0.269809
2982	0.143773
2994	0.0882514
3006	0.0607478
3018	0.0443828
3030	0.0340154
3042	0.0259613
3054	0.0203064
3066	0.0174789
3078	0.0148228
3090	0.011824
3102	0.0104531
3114	0.00916787
3126	0.00831106
3138	0.00865378
3150	0.00822538
3162	0.00702584
3174	0.00616903
3186	0.00514086
3198	0.00454109
3210	0.00308452
3222	0.00239907
3234	0.00154226
3246	0.00197066
3258	0.00154226
3270	0.00162794
3282	0.00171362
3294	0.0017993
3306	0.00188498
3318	0.00291315
3330	0.00282747
3342	0.00308452
3354	0.00368428
3366	0.00351292
3378	0.00325588
3390	0.0031702
3402	0.00308452
3414	0.0017993
3426	0.00248475
3438	0.00171362
3450	0.00188498
3462	0.00171362
3474	0.00102817
3486	0.00171362
3498	0.00102817
3510	0.000771129
3522	0.00162794
3534	0.000514086
3546	0.00162794
3558	0.000257043
3570	0.0017993
3582	0.00188498
3594	0.00239907
3606	0.00308452
3618	0.00462677
3630	0.00548358
3642	0.00402701
3654	0.00376996
3666	0.00265611
3678	0.00385564
3690	0.0035986
3702	0.00419837
3714	0.00205634
3726	0.00325588
3738	0.00368428
3750	0.00308452
3762	0.00214202
3774	0.00265611
3786	0.00162794
3798	0.00214202
3810	0.00239907
3822	0.00214202
3834	0.00239907
3846	0.00231339
3858	0.00222771
3870	0.00257043
3882	0.00419837
3894	0.0017993
3906	0.000942491
3918	0.00291315
3930	0.000428405
3942	0.00239907
3954	0.00154226
3966	0.00291315
