Infrared Spectrum: 7-Methoxy-1-tetralone
Formula: C 11 H 12 O 2
CAS: 6836-19-7
Origin: Sadtler Research Labs Under US-EPA Contract
1/CM	ABSORBANCE
450	0.049988
462	0.0428468
474	0.0243592
486	0.0280091
498	0.0306276
510	0.0315004
522	0.022693
534	0.0218995
546	0.0199952
558	0.0251527
570	0.0152344
582	0.0209473
594	0.018805
606	0.0107117
618	0.00618899
630	0.00880741
642	0.00928348
654	0.00634768
666	0.0134095
678	0.0159485
690	0.0361024
702	0.0299928
714	0.0106324
726	0.0182496
738	0.0224549
750	0.0220582
762	0.0202332
774	0.0172974
786	0.0274537
798	0.0575258
810	0.0943424
822	0.0803775
834	0.0504641
846	0.0361024
858	0.0322145
870	0.0527651
882	0.0749026
894	0.0544314
906	0.0283265
918	0.016742
930	0.0152344
942	0.0198365
954	0.0138855
966	0.014917
978	0.0380861
990	0.0245973
1002	0.0294374
1014	0.0444338
1026	0.096326
1038	0.191541
1050	0.175989
1062	0.0616518
1074	0.037372
1086	0.0407838
1098	0.0818057
1110	0.157819
1122	0.14679
1134	0.130762
1146	0.290644
1158	0.295246
1170	0.188129
1182	0.114814
1194	0.113465
1206	0.160914
1218	0.125367
1230	0.152027
1242	0.296913
1254	0.591128
1266	0.540981
1278	0.188526
1290	0.164802
1302	0.257875
1314	0.222645
1326	0.116718
1338	0.139808
1350	0.0841068
1362	0.0450685
1374	0.0418947
1386	0.0531618
1398	0.0583193
1410	0.0829959
1422	0.115369
1434	0.116321
1446	0.119733
1458	0.14679
1470	0.173688
1482	0.144489
1494	0.352296
1506	0.540664
1518	0.147107
1530	0.0500673
1542	0.039911
1554	0.0349122
1566	0.0488771
1578	0.113862
1590	0.135206
1602	0.197572
1614	0.33365
1626	0.220106
1638	0.124494
1650	0.0510195
1662	0.0330873
1674	0.0316591
1686	0.0480837
1698	0.0751407
1710	0.109339
1722	0.248274
1734	0.648574
1746	0.698324
1758	0.219233
1770	0.0925174
1782	0.0521303
1794	0.0311036
1806	0.0218995
1818	0.0166627
1830	0.0131714
1842	0.0122986
1854	0.0142029
1866	0.0118226
1878	0.0142823
1890	0.0130921
1902	0.00944217
1914	0.0089661
1926	0.0089661
1938	0.0110291
1950	0.00698245
1962	0.0089661
1974	0.00801395
1986	0.00928348
1998	0.0115845
2010	0.00888675
2022	0.00968021
2034	0.0079346
2046	0.0111084
2058	0.0103943
2070	0.0129334
2082	0.0118226
2094	0.0111084
2106	0.00864871
2118	0.00436403
2130	0.0069031
2142	0.00714114
2154	0.0099976
2166	0.0100769
2178	0.010315
2190	0.0120606
2202	0.00936283
2214	0.00888675
2226	0.0069031
2238	0.00849002
2250	0.00817264
2262	0.00888675
2274	0.0101563
2286	0.00968021
2298	0.0133301
2310	0.0131714
2322	0.0155518
2334	0.0160279
2346	0.018805
2358	0.0173768
2370	0.0189637
2382	0.0131714
2394	0.00650637
2406	0.00888675
2418	0.0039673
2430	0.00856937
2442	0.0089661
2454	0.00729983
2466	0.00904544
2478	0.00571291
2490	0.00809329
2502	0.00666506
2514	0.00634768
2526	0.00769656
2538	0.00864871
2550	0.00920414
2562	0.010553
2574	0.010553
2586	0.00555422
2598	0.00888675
2610	0.00864871
2622	0.00817264
2634	0.0098389
2646	0.00650637
2658	0.00936283
2670	0.00642703
2682	0.00769656
2694	0.00372926
2706	0.00817264
2718	0.00650637
2730	0.00722049
2742	0.00722049
2754	0.00737918
2766	0.0103943
2778	0.0112671
2790	0.0165833
2802	0.0192017
2814	0.0260255
2826	0.0405458
2838	0.0879154
2850	0.142823
2862	0.134888
2874	0.0998173
2886	0.0776004
2898	0.0861698
2910	0.143775
2922	0.160993
2934	0.145441
2946	0.239546
2958	0.269221
2970	0.179322
2982	0.0817264
2994	0.0840274
3006	0.157661
3018	0.120765
3030	0.0893436
3042	0.0624453
3054	0.0344362
3066	0.0430055
3078	0.0449098
3090	0.0349916
3102	0.0222962
3114	0.0176942
3126	0.0154725
3138	0.010315
3150	0.010553
3162	0.00634768
3174	0.00817264
3186	0.00642703
3198	0.00507814
3210	0.00523684
3222	0.00428468
3234	0.00468141
3246	0.00476076
3258	0.00491945
3270	0.00269776
3282	0.00238038
3294	0.00380861
3306	0.00301515
3318	0.00317384
3330	0
3342	0.00309449
3354	0.00222169
3366	0.00468141
3378	0.00452272
3390	0.00460207
3402	0.00468141
3414	0.00539553
3426	0.00761722
3438	0.00809329
3450	0.0143616
3462	0.0184083
3474	0.0111878
3486	0.0104737
3498	0.00571291
3510	0.00372926
3522	0.0060303
3534	0.00444338
3546	0.00523684
3558	0.00626833
3570	0.0099976
3582	0.00698245
3594	0.00864871
3606	0.0089661
3618	0.00674441
3630	0.0115052
3642	0.00745852
3654	0.00920414
3666	0.00579226
3678	0.00960087
3690	0.00841068
3702	0.0069031
3714	0.00968021
3726	0.00809329
3738	0.0114258
3750	0.0120606
3762	0.00952152
3774	0.00777591
3786	0.00880741
3798	0.00872806
3810	0.0115052
3822	0.012616
3834	0.0112671
3846	0.0107911
3858	0.0130127
3870	0.0122986
3882	0.0104737
3894	0.00729983
3906	0.00880741
3918	0.00817264
3930	0.00737918
3942	0.00769656
3954	0.0060303
3966	0.00642703
