Infrared Spectrum: Cyclohexane, 1-hexyl-4-tetradecyl
Formula: C 26 H 52
CAS: 6836-34-6
Origin: Sadtler Research Labs Under US-EPA Contract
1/CM	ABSORBANCE
450	0.0107889
462	0.00524542
474	0.00268232
486	0.00345721
498	0.00590109
510	0.00268232
522	0.00393406
534	0.0042321
546	0.00381485
558	0.00476856
570	0.00411288
582	0.00244389
594	0.00292074
606	0.00441092
618	0.00494738
630	0.00417249
642	0.00411288
654	0.00387446
666	0.00345721
678	0.00542424
690	0.00667598
702	0.00417249
714	0.0165707
726	0.0159151
738	0.0107293
750	0.00786812
762	0.0076297
774	0.0059607
786	0.00447053
798	0.00292074
810	0.00417249
822	0.00399367
834	0.00321878
846	0.00536463
858	0.00673559
870	0.00572227
882	0.0076297
894	0.0101928
906	0.00721245
918	0.00536463
930	0.00572227
942	0.00715284
954	0.00733166
966	0.00816616
978	0.00721245
990	0.00715284
1002	0.00536463
1014	0.00560306
1026	0.00476856
1038	0.00518581
1050	0.00774891
1062	0.00876223
1074	0.00989476
1086	0.0120406
1098	0.0126963
1110	0.0115042
1122	0.00983515
1134	0.00751048
1146	0.00691441
1158	0.00655677
1170	0.00643756
1182	0.00703363
1194	0.00691441
1206	0.00828537
1218	0.0101928
1230	0.0113253
1242	0.0116234
1254	0.0132924
1266	0.0137692
1278	0.0129347
1290	0.0143653
1302	0.0160939
1314	0.0157959
1326	0.0146037
1338	0.0192531
1350	0.0233063
1362	0.0237832
1374	0.021995
1386	0.0177033
1398	0.013352
1410	0.0142461
1422	0.016988
1434	0.0275384
1446	0.0644948
1458	0.0750452
1470	0.0449437
1482	0.0149018
1494	0.0051262
1506	0.00536463
1518	0.00387446
1530	0.00268232
1542	0.00274192
1554	0.00262271
1566	0.0025631
1578	0.00280153
1590	0.00208625
1602	0.00184782
1614	0.00160939
1626	0.000834498
1638	0.000774891
1650	0.000417249
1662	0.00119214
1674	0.00119214
1686	0.0025631
1698	0.00208625
1710	0.00250349
1722	0.00357642
1734	0.00369563
1746	0.00238428
1758	0.000476856
1770	0.000655677
1782	0.00119214
1794	0.00154978
1806	0.00107293
1818	0.00143057
1830	0.00125175
1842	0.000953712
1854	0.000834498
1866	0.00101332
1878	0.00101332
1890	0.000953712
1902	0.000894105
1914	0.000715284
1926	0.000536463
1938	0.000357642
1950	0.000417249
1962	0.000715284
1974	0.000715284
1986	0.000536463
1998	0.000774891
2010	0.000715284
2022	0.000774891
2034	0.00113253
2046	0.00125175
2058	0.000834498
2070	0.000715284
2082	0.000894105
2094	0.000536463
2106	0.000834498
2118	0.000655677
2130	0.000715284
2142	0.000536463
2154	0.000834498
2166	0.00119214
2178	0.00107293
2190	0.000953712
2202	0.00131135
2214	0.000894105
2226	0.000953712
2238	0.000953712
2250	0.00113253
2262	0.00101332
2274	0.001669
2286	0.00214585
2298	0.00369563
2310	0.00464935
2322	0.00572227
2334	0.00488777
2346	0.00536463
2358	0.00661638
2370	0.00309956
2382	0.00405328
2394	0.00232467
2406	0.00244389
2418	0.0025631
2430	0.00268232
2442	0.00262271
2454	0.00238428
2466	0.00262271
2478	0.00298035
2490	0.00321878
2502	0.00393406
2514	0.00417249
2526	0.0051262
2538	0.00554345
2550	0.00590109
2562	0.00625873
2574	0.00709323
2586	0.00774891
2598	0.00840459
2610	0.00965633
2622	0.0107889
2634	0.0118618
2646	0.0126963
2658	0.01365
2670	0.015021
2682	0.0156766
2694	0.0151402
2706	0.0154978
2718	0.0160343
2730	0.0171072
2742	0.0185378
2754	0.0199683
2766	0.0218162
2778	0.0254522
2790	0.0321878
2802	0.0399963
2814	0.0516793
2826	0.0716476
2838	0.12285
2850	0.242541
2862	0.289034
2874	0.193306
2886	0.181026
2898	0.232885
2910	0.334574
2922	0.515064
2934	0.557743
2946	0.277888
2958	0.168271
2970	0.130539
2982	0.0536463
2994	0.0258694
3006	0.0153786
3018	0.00983515
3030	0.00643756
3042	0.00381485
3054	0.00274192
3066	0.00250349
3078	0.00202664
3090	0.0017286
3102	0.00119214
3114	0.00119214
3126	0.00131135
3138	0.00244389
3150	0.00220546
3162	0.00196703
3174	0.0017286
3186	0.0017286
3198	0.00101332
3210	0.00131135
3222	0.00125175
3234	0.00113253
3246	0.00131135
3258	0.00143057
3270	0.00137096
3282	0.00154978
3294	0.00178821
3306	0.00238428
3318	0.00298035
3330	0.00196703
3342	0.00280153
3354	0.00244389
3366	0.00298035
3378	0.00268232
3390	0.00250349
3402	0.00232467
3414	0.00178821
3426	0.00232467
3438	0.00250349
3450	0.00208625
3462	0.00226507
3474	0.00244389
3486	0.00226507
3498	0.00119214
3510	0.00125175
3522	0.00137096
3534	0.001669
3546	0.00160939
3558	0.000774891
3570	0.0025631
3582	0.00131135
3594	0.00238428
3606	0.001669
3618	0.00292074
3630	0.00393406
3642	0.00268232
3654	0.00303996
3666	0.00190742
3678	0.00292074
3690	0.00232467
3702	0.00315917
3714	0.00220546
3726	0.00280153
3738	0.00309956
3750	0.00232467
3762	0.00250349
3774	0.00214585
3786	0.00214585
3798	0.00220546
3810	0.001669
3822	0.00303996
3834	0.00143057
3846	0.00125175
3858	0.00226507
3870	0.0025631
3882	0.00214585
3894	0.00196703
3906	0.0017286
3918	0.00345721
3930	0.00196703
3942	0.00202664
3954	0.0017286
3966	0.00113253
