Infrared Spectrum: 2-Propanone, 1,1,1,3,3,3-hexafluoro-
Formula: C 3 F 6 O
CAS: 684-16-2
Origin: Sadtler Research Labs Under US-EPA Contract
1/CM	ABSORBANCE
450	0.00711262
462	0.0235394
474	0.0223539
486	0.0215072
498	0.022862
510	0.0292972
522	0.0298052
534	0.0279424
546	0.0218459
558	0.0132091
570	0.00626588
582	0.00406435
594	0.0042337
606	0.00440305
618	0.0088061
630	0.00999153
642	0.00592718
654	0.00508044
666	0.000677392
678	0.0045724
690	0.00660457
702	0.0162574
714	0.255715
726	0.189331
738	0.0221846
750	0.00914479
762	0.0162574
774	0.0331922
786	0.0220152
798	0.00863675
810	0.00508044
822	0.00508044
834	0.00694327
846	0.0042337
858	0.00321761
870	0.00440305
882	0.0042337
894	0.00406435
906	0.00406435
918	0.00355631
930	0.00592718
942	0.0172735
954	0.185605
966	0.823878
978	0.440643
990	0.0187976
1002	0.0120237
1014	0.0179509
1026	0.0221846
1038	0.0106689
1050	0.00592718
1062	0.00406435
1074	0.00440305
1086	0.00524979
1098	0.00524979
1110	0.00491109
1122	0.00660457
1134	0.0101609
1146	0.0142252
1158	0.0201524
1170	0.038442
1182	0.0941575
1194	0.324809
1206	1.01135
1218	1.69348
1230	1.06723
1242	0.625741
1254	0.697714
1266	1.04268
1278	0.843692
1290	0.228281
1302	0.0677392
1314	0.0941575
1326	0.334801
1338	0.551058
1350	0.17409
1362	0.0147333
1374	0.00745131
1386	0.0084674
1398	0.00999153
1410	0.00948349
1422	0.00745131
1434	0.00745131
1446	0.00643522
1458	0.00304826
1470	0.00440305
1482	0.00406435
1494	0.00406435
1506	0.00270957
1518	0.00237087
1530	0.00203218
1542	0.00203218
1554	0.00338696
1566	0.00321761
1578	0.00338696
1590	0.00524979
1602	0.00643522
1614	0.00321761
1626	0.00169348
1638	0.00152413
1650	0.00101609
1662	0.00203218
1674	0.00169348
1686	0.00220152
1698	0.00169348
1710	0.00203218
1722	0.00203218
1734	0.00152413
1746	0.00203218
1758	0.0042337
1770	0.00728196
1782	0.0225233
1794	0.0900931
1806	0.159865
1818	0.0787468
1830	0.0118544
1842	0.00491109
1854	0.00406435
1866	0.003895
1878	0.00524979
1890	0.0042337
1902	0.00321761
1914	0.00338696
1926	0.00355631
1938	0.00321761
1950	0.00287892
1962	0.00304826
1974	0.00372566
1986	0.0045724
1998	0.00321761
2010	0.00237087
2022	0.00220152
2034	0.00338696
2046	0.00321761
2058	0.00220152
2070	0.00152413
2082	0.00169348
2094	0.00203218
2106	0.00304826
2118	0.003895
2130	0.0042337
2142	0.00338696
2154	0.00304826
2166	0.00338696
2178	0.00287892
2190	0.00186283
2202	0.00254022
2214	0.003895
2226	0.00304826
2238	0.00270957
2250	0.00186283
2262	0.00152413
2274	0.00186283
2286	0.00118544
2298	0.00169348
2310	0.00237087
2322	0.00254022
2334	0.00304826
2346	0.003895
2358	0.00440305
2370	0.00524979
2382	0.00474174
2394	0.0042337
2406	0.00355631
2418	0.003895
2430	0.00406435
2442	0.00508044
2454	0.00575783
2466	0.00541914
2478	0.00406435
2490	0.00321761
2502	0.00338696
2514	0.00372566
2526	0.00355631
2538	0.00254022
2550	0.00169348
2562	0.00169348
2574	0.00237087
2586	0.00254022
2598	0.00237087
2610	0.00270957
2622	0.00135478
2634	0.000169348
2646	0.000169348
2658	0
2670	0
2682	0.000169348
2694	0.000508044
2706	0.000677392
2718	0.00101609
2730	0.000677392
2742	0.000677392
2754	0.00152413
2766	0.00321761
2778	0.00186283
2790	0.000508044
2802	0.000169348
2814	0.000677392
2826	0.000677392
2838	0.000169348
2850	0.000508044
2862	0.000677392
2874	0.000508044
2886	0.000677392
2898	0.000169348
2910	0.000508044
2922	0.000677392
2934	0.000169348
2946	0.000508044
2958	0.00084674
2970	0.000508044
2982	0.000508044
2994	0.00118544
3006	0.000508044
3018	0.00084674
3030	0.000338696
3042	0.00118544
3054	0.00118544
3066	0.00101609
3078	0.00084674
3090	0.00084674
3102	0.00101609
3114	0.00101609
3126	0.00203218
3138	0.00287892
3150	0.00220152
3162	0.00118544
3174	0.000508044
3186	0.00084674
3198	0.000508044
3210	0.000338696
3222	0.000508044
3234	0.000338696
3246	0.000508044
3258	0.000508044
3270	0.000338696
3282	0.000169348
3294	0.00084674
3306	0.000169348
3318	0.000677392
3330	0.000338696
3342	0.000677392
3354	0.000508044
3366	0.000508044
3378	0.000169348
3390	0.000508044
3402	0.000338696
3414	0.000677392
3426	0.000169348
3438	0.000338696
3450	0.000508044
3462	0.00101609
3474	0.00084674
3486	0.000677392
3498	0.00101609
3510	0.000338696
3522	0.00084674
3534	0.000338696
3546	0.000508044
3558	0.00118544
3570	0.00355631
3582	0.00694327
3594	0.00762066
3606	0.00321761
3618	0.000677392
3630	0.000338696
3642	0.00118544
3654	0.00101609
3666	0.00084674
3678	0.00152413
3690	0.000677392
3702	0.00152413
3714	0.00118544
3726	0.000338696
3738	0.00135478
3750	0
3762	0.000338696
3774	0.000508044
3786	0.00084674
3798	0.000508044
3810	0
3822	0.00135478
3834	0.000338696
3846	0.000508044
3858	0.00118544
3870	0.000508044
3882	0
3894	0.000508044
3906	0.000677392
3918	0.00101609
3930	0.000677392
3942	0
3954	0.000677392
3966	0.00152413
