Infrared Spectrum: 1,3-Butanediol, 2-methyl-
Formula: C 5 H 12 O 2
CAS: 684-84-4
Origin: Sadtler Research Labs Under US-EPA Contract
1/CM	ABSORBANCE
450	0.0418431
462	0.0168226
474	0.0299733
486	0.00836861
498	0.0150293
510	0.016481
522	0.0178473
534	0.017335
546	0.0085394
558	0.00102473
570	0.00597758
582	0.0122967
594	0.014517
606	0.0135776
618	0.0155417
630	0.0146024
642	0.0118698
654	0.0105889
666	0.0071731
678	0.0115282
690	0.0121259
702	0.00896637
714	0.00606297
726	0.00930795
738	0.00700231
750	0.0113574
762	0.0160541
774	0.0176766
786	0.0181889
798	0.014517
810	0.0160541
822	0.01409
834	0.0180181
846	0.0214339
858	0.0391105
870	0.0647287
882	0.0822344
894	0.0867603
906	0.11921
918	0.174289
930	0.194784
942	0.152684
954	0.129457
966	0.162505
978	0.207337
990	0.249692
1002	0.31314
1014	0.443366
1026	0.609372
1038	0.636185
1050	0.496993
1062	0.379833
1074	0.338673
1086	0.346956
1098	0.384956
1110	0.402035
1122	0.355666
1134	0.282313
1146	0.227746
1158	0.184366
1170	0.150977
1182	0.131678
1194	0.140644
1206	0.15832
1218	0.174375
1230	0.185049
1242	0.192393
1254	0.191283
1266	0.178473
1278	0.169166
1290	0.162505
1302	0.14944
1314	0.139363
1326	0.1333
1338	0.144572
1350	0.15277
1362	0.193503
1374	0.282825
1386	0.356093
1398	0.317239
1410	0.245081
1422	0.192905
1434	0.141839
1446	0.146621
1458	0.185305
1470	0.185817
1482	0.131678
1494	0.066095
1506	0.0364632
1518	0.0258744
1530	0.0184451
1542	0.0151147
1554	0.0135776
1566	0.00896637
1578	0.00879558
1590	0.0057214
1602	0.0111012
1614	0.0109304
1626	0.005636
1638	0.00922255
1650	0.0101619
1662	0.00273261
1674	0.00982031
1686	0.0057214
1698	0.00597758
1710	0.00725849
1722	0.00768546
1734	0.00555061
1746	0.00768546
1758	0.0085394
1770	0.00896637
1782	0.00631916
1794	0.00597758
1806	0.00606297
1818	0.00444049
1830	0.00580679
1842	0.00153709
1854	0.00239103
1866	0.00666073
1878	0.00239103
1890	0.00392812
1902	0.0029034
1914	0.00256182
1926	0.00529443
1938	0.00384273
1950	0.0013663
1962	0.00196406
1974	0.00298879
1986	0.0029034
1998	0.0014517
2010	0.00273261
2022	0.00452588
2034	0.00495285
2046	0.00409891
2058	0.00478206
2070	0.00375734
2082	0.00392812
2094	0.00273261
2106	0.00239103
2118	0.00153709
2130	0.00119552
2142	0.000768546
2154	0.00085394
2166	0.00111012
2178	0.00111012
2190	0.00119552
2202	0.00153709
2214	0.00085394
2226	0.00196406
2238	0.0029034
2250	0.00222024
2262	0.00384273
2274	0.0029034
2286	0.00307418
2298	0.00409891
2310	0.0029034
2322	0.002818
2334	0.00042697
2346	0.00811243
2358	0.00247643
2370	0.00213485
2382	0.00546522
2394	0.00623376
2406	0.00666073
2418	0.00725849
2430	0.00862479
2442	0.00734388
2454	0.00700231
2466	0.0057214
2478	0.00606297
2490	0.00478206
2502	0.00529443
2514	0.00580679
2526	0.00614837
2538	0.0071731
2550	0.00785625
2562	0.00879558
2574	0.00964952
2586	0.0105889
2598	0.0117844
2610	0.01409
2622	0.0160541
2634	0.0180181
2646	0.019299
2658	0.019726
2670	0.0211777
2682	0.022971
2694	0.0239957
2706	0.0264721
2718	0.0293755
2730	0.0350969
2742	0.0406475
2754	0.0436363
2766	0.0463689
2778	0.0513218
2790	0.0580679
2802	0.0660096
2814	0.0765984
2826	0.0923109
2838	0.119979
2850	0.170532
2862	0.258744
2874	0.431154
2886	0.636954
2898	0.699548
2910	0.609115
2922	0.590073
2934	0.606041
2946	0.573165
2958	0.591183
2970	0.798946
2982	0.825931
2994	0.473937
3006	0.158918
3018	0.0526881
3030	0.0317666
3042	0.0252766
3054	0.0222878
3066	0.0192137
3078	0.0179327
3090	0.0166518
3102	0.0163103
3114	0.0146878
3126	0.0133215
3138	0.0135776
3150	0.0135776
3162	0.01409
3174	0.0135776
3186	0.0125529
3198	0.0110158
3210	0.00922255
3222	0.00674613
3234	0.00444049
3246	0.00341576
3258	0.00256182
3270	0.00213485
3282	0.00128091
3294	0.0014517
3306	0.00085394
3318	0.000597758
3330	0.00111012
3342	0.000768546
3354	0.0014517
3366	0.00204946
3378	0.000939334
3390	0.00111012
3402	0.00170788
3414	0.0029034
3426	0.00358655
3438	0.00674613
3450	0.00742928
3462	0.00794164
3474	0.00725849
3486	0.00529443
3498	0.00640455
3510	0.00495285
3522	0.00982031
3534	0.00947873
3546	0.0167372
3558	0.0186159
3570	0.0760007
3582	0.157894
3594	0.251742
3606	0.22211
3618	0.128603
3630	0.0888952
3642	0.0997402
3654	0.167714
3666	0.206995
3678	0.150891
3690	0.065241
3702	0.022544
3714	0.0125529
3726	0.00683152
3738	0.00256182
3750	0.0118698
3762	0.00042697
3774	0.0013663
3786	0
3798	0.000256182
3810	0.000597758
3822	0.000256182
3834	0.000256182
3846	0.00162249
3858	0.000170788
3870	0.000256182
3882	0.000939334
3894	0.000256182
3906	0.00085394
3918	0.00196406
3930	0.000256182
3942	0.000256182
3954	0.000683152
3966	0.000256182
