Infrared Spectrum: Silane, dimethoxydiphenyl-
Formula: C 14 H 16 O 2 Si
CAS: 6843-66-9
Origin: Sadtler Research Labs Under US-EPA Contract
1/CM	ABSORBANCE
450	0.0424306
462	0.0252408
474	0.0489584
486	0.0715881
498	0.0683967
510	0.115614
522	0.422203
534	0.166459
546	0.0209615
558	0.00739816
570	0.000942903
582	0.000435186
594	0.00232099
606	0
618	0.00471451
630	0.00203087
642	0.0042068
654	0.0175525
666	0.032784
678	0.0388766
690	0.084281
702	0.212516
714	0.269743
726	0.259298
738	0.261039
750	0.122722
762	0.2218
774	0.0596205
786	0.0446791
798	0.110972
810	0.191119
822	0.0610711
834	0.0171173
846	0.00957409
858	0.00391667
870	0.00261112
882	0.00246605
894	0.00224846
906	0.00203087
918	0.00282871
930	0.00290124
942	0.00377161
954	0.00348149
966	0.00435186
978	0.00718057
990	0.0145062
1002	0.0290849
1014	0.0218318
1026	0.0308982
1038	0.0303905
1050	0.0382964
1062	0.0717332
1074	0.16392
1086	0.411541
1098	0.72531
1110	0.561027
1122	0.722046
1134	0.418069
1146	0.213024
1158	0.14528
1170	0.122868
1182	0.15246
1194	0.191699
1206	0.141
1218	0.0910989
1230	0.0562841
1242	0.0376436
1254	0.0296652
1266	0.0248056
1278	0.0201636
1290	0.0158118
1302	0.0157392
1314	0.0110972
1326	0.0113874
1338	0.00921144
1350	0.00913891
1362	0.0110247
1374	0.0132732
1386	0.0101543
1398	0.0102994
1410	0.0150864
1422	0.0327115
1434	0.0739091
1446	0.0177701
1458	0.015159
1470	0.0143611
1482	0.0134182
1494	0.0123303
1506	0.00776082
1518	0.00790588
1530	0.00812347
1542	0.00855866
1554	0.00971915
1566	0.00899384
1578	0.0101543
1590	0.0230649
1602	0.0108796
1614	0.00536729
1626	0.00311883
1638	0.00261112
1650	0.00616514
1662	0.00572995
1674	0.00174074
1686	0.00137809
1698	0.00159568
1710	0.00282871
1722	0.00413427
1734	0.00485958
1746	0.00536729
1758	0.0060926
1770	0.00703551
1782	0.00449692
1794	0.00275618
1806	0.00442439
1818	0.0142886
1830	0.0102269
1842	0.00667285
1854	0.00602007
1866	0.00674538
1878	0.0093565
1890	0.0157392
1902	0.0166821
1914	0.00783335
1926	0.00507717
1938	0.00478705
1950	0.0093565
1962	0.0115324
1974	0.00645526
1986	0.00195834
1998	0.00137809
2010	0.00137809
2022	0.000870372
2034	0.000290124
2046	0.000362655
2058	0.000217593
2070	0.000217593
2082	0.000290124
2094	0.000217593
2106	0.000145062
2118	0.000507717
2130	0.000652779
2142	0.0011605
2154	0.00174074
2166	0.00224846
2178	0.00261112
2190	0.0021034
2202	0.00152315
2214	0.00145062
2226	0.00166821
2238	0.0021034
2250	0.00188581
2262	0.00137809
2274	0.00108796
2286	0.00137809
2298	0.00152315
2310	0.00275618
2322	0.00239352
2334	0.000652779
2346	0.00108796
2358	0.000870372
2370	0
2382	0.000652779
2394	0.000435186
2406	0
2418	0.000507717
2430	0.000145062
2442	7.2531e-05
2454	0.000217593
2466	0.000507717
2478	0.000507717
2490	0.000290124
2502	0.000362655
2514	0.000507717
2526	0.00072531
2538	0.000652779
2550	0.000870372
2562	0.00130556
2574	0.00137809
2586	0.00217593
2598	0.00203087
2610	0.00217593
2622	0.00297377
2634	0.00217593
2646	0.0021034
2658	0.00166821
2670	0.00181328
2682	0.00159568
2694	0.00195834
2706	0.00297377
2718	0.00268365
2730	0.00174074
2742	0.00152315
2754	0.00203087
2766	0.00282871
2778	0.00413427
2790	0.00551236
2802	0.00826853
2814	0.015159
2826	0.0253133
2838	0.0799292
2850	0.190031
2862	0.051497
2874	0.0348874
2886	0.0349599
2898	0.0406174
2910	0.0509893
2922	0.0665835
2934	0.0800017
2946	0.156449
2958	0.146513
2970	0.0905912
2982	0.0832656
2994	0.0726035
3006	0.0800017
3018	0.0950156
3030	0.0722409
3042	0.0604183
3054	0.120837
3066	0.174002
3078	0.139114
3090	0.0600557
3102	0.0359754
3114	0.0110247
3126	0.00768829
3138	0.0110972
3150	0.00645526
3162	0.00246605
3174	0.00130556
3186	0.00152315
3198	0.000870372
3210	0.00145062
3222	0.00072531
3234	0.000942903
3246	0.000362655
3258	0.000217593
3270	0.000797841
3282	0.000870372
3294	0.000942903
3306	0.000217593
3318	0.00072531
3330	0.000435186
3342	0.000580248
3354	0.000217593
3366	0.000580248
3378	0.00108796
3390	0.000507717
3402	0.000797841
3414	0.000507717
3426	0.000942903
3438	0.00137809
3450	0.000362655
3462	0.000435186
3474	0.00072531
3486	0.00108796
3498	0.00072531
3510	0.000290124
3522	0.000507717
3534	0.00123303
3546	0.00108796
3558	0.00101543
3570	0.000507717
3582	0.000362655
3594	0.000870372
3606	0.000145062
3618	0.0011605
3630	0.0021034
3642	0.00217593
3654	0
3666	0.000435186
3678	0.0011605
3690	0.00130556
3702	0.000942903
3714	0.00261112
3726	0.00268365
3738	0.0011605
3750	0.00159568
3762	0.00130556
3774	0.00174074
3786	0.00108796
3798	0.000652779
3810	0.00072531
3822	0.00166821
3834	0.00108796
3846	0.00166821
3858	0.00101543
3870	0.00217593
3882	0.000797841
3894	0.00072531
3906	0.00232099
3918	0.00123303
3930	0.00145062
3942	0.000797841
3954	0.00130556
3966	0.00181328
