Infrared Spectrum: Propanedioic acid, bromo-, diethyl ester
Formula: C 7 H 11 Br O 4
CAS: 685-87-0
Origin: Sadtler Research Labs Under US-EPA Contract
1/CM	ABSORBANCE
450	0.0113586
462	0.0096376
474	0.00731425
486	0.00559325
498	0.0041304
510	0.00129075
522	0.0003442
534	0.0030978
546	0.00559325
558	0.0104121
570	0.0129936
582	0.0181566
594	0.0150588
606	0.0164356
618	0.0213404
630	0.0265034
642	0.0376899
654	0.0387225
666	0.0233196
678	0.0215986
690	0.0180705
702	0.0220288
714	0.0270197
726	0.0199636
738	0.0135099
750	0.0113586
762	0.0155751
774	0.0209962
786	0.0234056
798	0.0219428
810	0.0226312
822	0.0215125
834	0.0135099
846	0.0146285
858	0.036141
870	0.0594606
882	0.0307198
894	0.00955155
906	0.00628165
918	0.00886315
930	0.0197915
942	0.0285686
954	0.0249545
966	0.018931
978	0.0141983
990	0.0160053
1002	0.0278802
1014	0.0676353
1026	0.204111
1038	0.404607
1050	0.256515
1062	0.0924177
1074	0.0590303
1086	0.0695284
1098	0.132087
1110	0.143617
1122	0.199292
1134	0.377243
1146	0.532822
1158	0.31718
1170	0.203508
1182	0.189052
1194	0.250061
1206	0.29171
1218	0.277511
1230	0.365626
1242	0.467165
1254	0.475598
1266	0.481364
1278	0.483773
1290	0.391269
1302	0.403747
1314	0.334993
1326	0.146973
1338	0.0737449
1350	0.0351945
1362	0.0453484
1374	0.132775
1386	0.0536092
1398	0.0520603
1410	0.0387225
1422	0.029257
1434	0.0299454
1446	0.0406156
1458	0.0505114
1470	0.0638491
1482	0.0462089
1494	0.0166077
1506	0.0084329
1518	0.0056793
1530	0.00404435
1542	0.00542115
1554	0.0030978
1566	0.00146285
1578	0.0020652
1590	0.00197915
1602	0.0012047
1614	0.00163495
1626	0.0032699
1638	0.00352805
1650	0.00507695
1662	0.00387225
1674	0.006884
1686	0.0117028
1698	0.0186729
1710	0.0317525
1722	0.0604932
1734	0.125977
1746	0.359001
1758	0.797081
1770	0.65682
1782	0.394883
1794	0.22373
1806	0.0599769
1818	0.0302036
1830	0.0178124
1842	0.0111005
1854	0.0061956
1866	0.0053351
1878	0.00490485
1890	0.0061956
1902	0.00610955
1914	0.0046467
1926	0.0027536
1938	0.00129075
1950	0.0006884
1962	0.0010326
1974	0.0006884
1986	0.00077445
1998	0.0015489
2010	0.00163495
2022	0.00111865
2034	0.00060235
2046	0.00060235
2058	0.0008605
2070	0.0015489
2082	0.0015489
2094	0.0015489
2106	0.00197915
2118	0.00197915
2130	0.00163495
2142	0.00146285
2154	0.0010326
2166	0.00060235
2178	0.0006884
2190	8.605e-05
2202	0.0001721
2214	0.0003442
2226	0.00060235
2238	0.00094655
2250	0.0008605
2262	0.00043025
2274	0.00043025
2286	0.0006884
2298	0.0024094
2310	0.00456065
2322	0.0044746
2334	0.00318385
2346	0.0043025
2358	0.00283965
2370	0.003442
2382	0.0043025
2394	0.00094655
2406	0.00129075
2418	0.0015489
2430	0.0018931
2442	0.00111865
2454	0.0012047
2466	0.0012047
2478	0.00111865
2490	0.00129075
2502	0.0010326
2514	0.00077445
2526	0.0006884
2538	0.0005163
2550	0.0006884
2562	0.00060235
2574	0.0005163
2586	0
2598	0
2610	0.0001721
2622	0.00077445
2634	0.0005163
2646	0.0005163
2658	0.0001721
2670	0.0006884
2682	0.00060235
2694	0.0008605
2706	0.00094655
2718	0.00129075
2730	0.00180705
2742	0.00232335
2754	0.00249545
2766	0.00283965
2778	0.0041304
2790	0.0039583
2802	0.00352805
2814	0.0044746
2826	0.0067119
2838	0.0079166
2850	0.0084329
2862	0.0125633
2874	0.0192752
2886	0.0369155
2898	0.0364852
2910	0.0495648
2922	0.0536092
2934	0.0542115
2946	0.0992157
2958	0.0777031
2970	0.0887176
2982	0.161
2994	0.244984
3006	0.131226
3018	0.0692703
3030	0.0294291
3042	0.015489
3054	0.01024
3066	0.0070561
3078	0.00559325
3090	0.0048188
3102	0.0043025
3114	0.003442
3126	0.0041304
3138	0.00352805
3150	0.0030978
3162	0.0032699
3174	0.0029257
3186	0.0029257
3198	0.00249545
3210	0.0025815
3222	0.0018931
3234	0.00146285
3246	0.0015489
3258	0.00094655
3270	0.0005163
3282	0.00060235
3294	0.00094655
3306	0.00146285
3318	0.0005163
3330	0.00111865
3342	0.00094655
3354	0.00077445
3366	0.0005163
3378	0.0008605
3390	0.00111865
3402	0.00146285
3414	0.0006884
3426	0.00077445
3438	0.0012047
3450	0.0008605
3462	0.0015489
3474	0.0020652
3486	0.00352805
3498	0.00370015
3510	0.0037862
3522	0.0027536
3534	0.00215125
3546	0.0024094
3558	0.00111865
3570	0.00094655
3582	0.00043025
3594	0.00129075
3606	0.00025815
3618	0.0005163
3630	0.0013768
3642	0.0013768
3654	0.00215125
3666	0.00232335
3678	0.00318385
3690	0.00232335
3702	0.0012047
3714	0.0013768
3726	0.0010326
3738	0.00197915
3750	0.00146285
3762	0.0020652
3774	0.00215125
3786	0.0008605
3798	0.0025815
3810	0.00197915
3822	0.00283965
3834	0.00180705
3846	0.00146285
3858	0.00146285
3870	0.0022373
3882	0.001721
3894	0.0003442
3906	0.0003442
3918	0.0013768
3930	0.00180705
3942	0.00249545
3954	0.0025815
3966	0.0024094
