Infrared Spectrum: Acetamide, N,N-diethyl-
Formula: C 6 H 13 N O
CAS: 685-91-6
Origin: Sadtler Research Labs Under US-EPA Contract
1/CM	ABSORBANCE
450	0.0140361
462	0.00360218
474	0.0101855
486	0.0157751
498	0.0152782
510	0.00757699
522	0.00583801
534	0.00534116
546	0.00484431
558	0.00558959
570	0.0187562
582	0.0363944
594	0.0391271
606	0.0365186
618	0.0201225
630	0.00621065
642	0.00360218
654	0.00260847
666	0.00223583
678	0.00273269
690	0.00496852
702	0.00869491
714	0.00596222
726	0.00298111
738	0.00236005
750	0.00310532
762	0.0038506
774	0.0166445
786	0.0407419
798	0.0347796
810	0.0104339
822	0.00236005
834	0.00136634
846	0.00161477
858	0.000869491
870	0.00149056
882	0.00173898
894	0.00472009
906	0.00906755
918	0.00819806
930	0.00496852
942	0.00708014
954	0.00819806
966	0.0145329
978	0.0332891
990	0.045462
1002	0.0339101
1014	0.0293143
1026	0.0640939
1038	0.0907997
1050	0.0665782
1062	0.0537842
1074	0.0717951
1086	0.0712983
1098	0.0642181
1110	0.0444683
1122	0.0203709
1134	0.0144087
1146	0.0243457
1158	0.0689382
1170	0.0832227
1182	0.0392513
1194	0.0217373
1206	0.0349039
1218	0.088067
1230	0.119244
1242	0.0768878
1254	0.0957682
1266	0.282212
1278	0.354007
1290	0.179115
1302	0.0962651
1314	0.102973
1326	0.0720435
1338	0.0637213
1350	0.128685
1362	0.193275
1374	0.218118
1386	0.222465
1398	0.203709
1410	0.341958
1422	0.488281
1434	0.355373
1446	0.208554
1458	0.183214
1470	0.162471
1482	0.134895
1494	0.0853343
1506	0.037885
1518	0.0218615
1530	0.0172656
1542	0.0122971
1554	0.0125455
1566	0.0147813
1578	0.0171414
1590	0.0188804
1602	0.0208678
1614	0.0221099
1626	0.0305564
1638	0.0570138
1650	0.091545
1662	0.247432
1674	0.965011
1686	1.16537
1698	0.406052
1710	0.0696835
1722	0.0308048
1734	0.0214888
1746	0.0203709
1758	0.0178867
1770	0.0173898
1782	0.0158993
1794	0.0111792
1806	0.0100613
1818	0.00521695
1830	0.00124213
1842	0.000869491
1854	0.00186319
1866	0.00136634
1878	0.00161477
1890	0.000621065
1902	0.000993704
1914	0.000745278
1926	0.00161477
1938	0.00223583
1950	0.00211162
1962	0.0028569
1974	0.00310532
1986	0.00236005
1998	0.000993704
2010	0.000993704
2022	0.000621065
2034	0.000248426
2046	0.000124213
2058	0.000869491
2070	0.00161477
2082	0.00111792
2094	0.00173898
2106	0.00260847
2118	0.00409903
2130	0.00372639
2142	0.00248426
2154	0.00173898
2166	0.00186319
2178	0.00149056
2190	0.00111792
2202	0.000869491
2214	0.000745278
2226	0.00124213
2238	0.00124213
2250	0.00198741
2262	0.00223583
2274	0.00211162
2286	0.00186319
2298	0.00186319
2310	0.00236005
2322	0.0028569
2334	0.00273269
2346	0.00322954
2358	0.00310532
2370	0.00236005
2382	0.00298111
2394	0.00310532
2406	0.00236005
2418	0.00186319
2430	0.00211162
2442	0.00248426
2454	0.00260847
2466	0.00198741
2478	0.00161477
2490	0.00136634
2502	0.00111792
2514	0.00161477
2526	0.00236005
2538	0.00298111
2550	0.00260847
2562	0.00186319
2574	0.00161477
2586	0.00223583
2598	0.00186319
2610	0.00186319
2622	0.00236005
2634	0.00223583
2646	0.00236005
2658	0.00273269
2670	0.00310532
2682	0.00434746
2694	0.00583801
2706	0.00621065
2718	0.00546537
2730	0.0057138
2742	0.00645908
2754	0.00645908
2766	0.00658329
2778	0.00745278
2790	0.00931598
2802	0.0118002
2814	0.0154024
2826	0.0195014
2838	0.0242215
2850	0.0301838
2862	0.0421082
2874	0.0793721
2886	0.122971
2898	0.128312
2910	0.126076
2922	0.137504
2934	0.20048
2946	0.226813
2958	0.179612
2970	0.250538
2982	0.38593
2994	0.304073
3006	0.143218
3018	0.0639697
3030	0.0412387
3042	0.0296869
3054	0.0242215
3066	0.0203709
3078	0.0177625
3090	0.0155266
3102	0.013415
3114	0.0115518
3126	0.00993704
3138	0.0085707
3150	0.00844648
3162	0.00782542
3174	0.00732857
3186	0.00633486
3198	0.00472009
3210	0.00335375
3222	0.00236005
3234	0.00211162
3246	0.00186319
3258	0.00186319
3270	0.00236005
3282	0.00161477
3294	0.00236005
3306	0.0028569
3318	0.00335375
3330	0.00621065
3342	0.0105581
3354	0.00993704
3366	0.00447167
3378	0.00111792
3390	0.00161477
3402	0.00211162
3414	0.00198741
3426	0.00198741
3438	0.00124213
3450	0.00161477
3462	0.00211162
3474	0.00186319
3486	0.00136634
3498	0.00124213
3510	0.00111792
3522	0.00124213
3534	0.00136634
3546	0.00198741
3558	0.00273269
3570	0.00248426
3582	0.00298111
3594	0.00248426
3606	0.00186319
3618	0.00124213
3630	0.00149056
3642	0.000621065
3654	0.00111792
3666	0.00136634
3678	0.00173898
3690	0.00211162
3702	0.00136634
3714	0.00111792
3726	0.00111792
3738	0.00223583
3750	0.00198741
3762	0.00161477
3774	0.00124213
3786	0.00124213
3798	0.00136634
3810	0.00136634
3822	0.00186319
3834	0.00124213
3846	0.00161477
3858	0.00136634
3870	0.000869491
3882	0.00136634
3894	0.00198741
3906	0.00223583
3918	0.00223583
3930	0.00124213
3942	0.000869491
3954	0.00186319
3966	0.00186319
