Infrared Spectrum: Propanenitrile, 3-(tetradecyloxy)-
Formula: C 17 H 33 N O
CAS: 68527-83-3
Origin: Sadtler Research Labs Under US-EPA Contract
1/CM	ABSORBANCE
450	0.00603963
462	0.0209177
474	0.0257789
486	0.0254843
498	0.0300508
510	0.0120793
522	0.0209177
534	0.00117846
546	0.0216543
558	0.0273993
570	0.0309347
582	0.0263681
594	0.0192973
606	0.0178243
618	0.0231274
630	0.021065
642	0.0132577
654	0.0192973
666	0.0204758
678	0.0287251
690	0.0259262
702	0.0282831
714	0.0372689
726	0.0408043
738	0.0309347
750	0.0355012
762	0.0256316
774	0.0240112
786	0.0241585
798	0.0226854
810	0.0244531
822	0.0278412
834	0.027252
846	0.0306401
858	0.0278412
870	0.0213597
882	0.0271047
894	0.0271047
906	0.0301981
918	0.0262208
930	0.0288724
942	0.0303454
954	0.0327024
966	0.0337335
978	0.0390366
990	0.0416882
1002	0.044487
1014	0.0484643
1026	0.0447816
1038	0.0493482
1050	0.0549459
1062	0.0637844
1074	0.0768948
1086	0.0972233
1098	0.162333
1110	0.35133
1122	0.504825
1134	0.339398
1146	0.148781
1158	0.0891213
1170	0.062164
1182	0.0512632
1194	0.0434559
1206	0.0446343
1218	0.0410989
1230	0.0402151
1242	0.0384474
1254	0.0472859
1266	0.0461074
1278	0.0449289
1290	0.0447816
1302	0.0492009
1314	0.0494955
1326	0.0468439
1338	0.0547986
1350	0.0789571
1362	0.110628
1374	0.121824
1386	0.0687928
1398	0.0403624
1410	0.0409516
1422	0.0489063
1434	0.0574501
1446	0.0810194
1458	0.119025
1470	0.114753
1482	0.0609855
1494	0.032997
1506	0.021507
1518	0.0167931
1530	0.0144362
1542	0.0123739
1554	0.0119319
1566	0.0110481
1578	0.0106062
1590	0.0103116
1602	0.0091331
1614	0.00957502
1626	0.00854386
1638	0.00839656
1650	0.00824925
1662	0.0073654
1674	0.0073654
1686	0.00766002
1698	0.00677617
1710	0.00721809
1722	0.00780732
1734	0.00810194
1746	0.00957502
1758	0.0104589
1770	0.00869117
1782	0.00677617
1794	0.0054504
1806	0.00456655
1818	0.00397732
1830	0.0036827
1842	0.00412462
1854	0.00353539
1866	0.00397732
1878	0.00338808
1890	0.00309347
1902	0.00353539
1914	0.00338808
1926	0.0036827
1938	0.00294616
1950	0.00338808
1962	0.00353539
1974	0.00294616
1986	0.00265154
1998	0.00235693
2010	0.00279885
2022	0.00324078
2034	0.0036827
2046	0.00324078
2058	0.00309347
2070	0.00324078
2082	0.00309347
2094	0.00265154
2106	0.00235693
2118	0.00235693
2130	0.00220962
2142	0.0017677
2154	0.00235693
2166	0.0017677
2178	0.00162039
2190	0.00117846
2202	0.000589232
2214	0.00117846
2226	0.00117846
2238	0.00294616
2250	0.00618694
2262	0.00721809
2274	0.00220962
2286	0.00147308
2298	0.001915
2310	0.00206231
2322	0.00309347
2334	0.00220962
2346	0.00338808
2358	0.00235693
2370	0.00265154
2382	0.00206231
2394	0.00147308
2406	0.00132577
2418	0.0017677
2430	0.0017677
2442	0.00162039
2454	0.00206231
2466	0.00162039
2478	0.00206231
2490	0.00235693
2502	0.00235693
2514	0.00338808
2526	0.0036827
2538	0.00500847
2550	0.00500847
2562	0.00471386
2574	0.00574501
2586	0.00618694
2598	0.00721809
2610	0.0092804
2622	0.00957502
2634	0.0111954
2646	0.0119319
2658	0.0139943
2670	0.0154673
2682	0.017677
2694	0.0188554
2706	0.0190027
2718	0.0209177
2730	0.0231274
2742	0.0251897
2754	0.025337
2766	0.0269574
2778	0.031082
2790	0.0400678
2802	0.050674
2814	0.0587759
2826	0.0763055
2838	0.114311
2850	0.246888
2862	0.623849
2874	0.559918
2886	0.422332
2898	0.368712
2910	0.505266
2922	0.867055
2934	1.47308
2946	0.975915
2958	0.503941
2970	0.387715
2982	0.181631
2994	0.0891213
3006	0.0553878
3018	0.038742
3030	0.0290197
3042	0.0223908
3054	0.017677
3066	0.0147308
3078	0.0116373
3090	0.00986964
3102	0.00957502
3114	0.00795463
3126	0.00766002
3138	0.00677617
3150	0.00677617
3162	0.00648155
3174	0.00662886
3186	0.0054504
3198	0.00486116
3210	0.00471386
3222	0.0036827
3234	0.00279885
3246	0.00294616
3258	0.00279885
3270	0.00338808
3282	0.00235693
3294	0.00265154
3306	0.00265154
3318	0.001915
3330	0.001915
3342	0.00353539
3354	0.00220962
3366	0.00294616
3378	0.00324078
3390	0.00324078
3402	0.00162039
3414	0.00279885
3426	0.00294616
3438	0.00220962
3450	0.00220962
3462	0.00294616
3474	0.00279885
3486	0.00147308
3498	0.00235693
3510	0.00279885
3522	0.00338808
3534	0.00235693
3546	0.0017677
3558	0.00265154
3570	0.00220962
3582	0.00412462
3594	0.00324078
3606	0.00265154
3618	0.00397732
3630	0.00427193
3642	0.0055977
3654	0.00353539
3666	0.00265154
3678	0.00441924
3690	0.00250424
3702	0.00441924
3714	0.00441924
3726	0.00427193
3738	0.0036827
3750	0.0054504
3762	0.00294616
3774	0.00353539
3786	0.00338808
3798	0.00324078
3810	0
3822	0.00677617
3834	0.00220962
3846	0.00412462
3858	0.0054504
3870	0.00117846
3882	0.00441924
3894	0.00515578
3906	0.00441924
3918	0.00515578
3930	0.00338808
3942	0.00500847
3954	0.0017677
3966	0.00721809
