Infrared Spectrum: 1,2-Ethanediamine, N,N,N',N'-tetrapropyl-
Formula: C 14 H 32 N 2
CAS: 68555-41-9
Origin: Sadtler Research Labs Under US-EPA Contract
1/CM	ABSORBANCE
450	0.00515066
462	0.00712626
474	0.00486843
486	0.00359841
498	0.005574
510	0.00550345
522	0.00832573
534	0.0075496
546	0.0090313
558	0.0080435
570	0.010513
582	0.00373952
594	0.00698514
606	0.000493899
618	0.00310451
630	0.00366896
642	0.00423342
654	0.00345729
666	0.00409231
678	0.00493899
690	0.00811406
702	0.0065618
714	0.00966631
726	0.0126297
738	0.0184154
750	0.0213788
762	0.0138292
774	0.012418
786	0.0135469
798	0.0123475
810	0.0125591
822	0.0141114
834	0.0208849
846	0.021026
858	0.0190504
870	0.0220843
882	0.0285756
894	0.0283639
906	0.0201793
918	0.0171454
930	0.0160164
942	0.0184859
954	0.020391
966	0.019756
978	0.0214493
990	0.0303395
1002	0.048261
1014	0.0582095
1026	0.0647713
1038	0.0606085
1050	0.0639246
1062	0.113879
1074	0.181473
1086	0.140267
1098	0.100544
1110	0.0680169
1122	0.0508716
1134	0.0419814
1146	0.0480493
1158	0.0425459
1170	0.0356313
1182	0.0579979
1194	0.0831867
1206	0.0368308
1218	0.0227899
1230	0.0232133
1242	0.0285756
1254	0.0359841
1266	0.0474143
1278	0.0565867
1290	0.0601146
1302	0.0601146
1314	0.0502366
1326	0.0497427
1338	0.0615257
1350	0.0666058
1362	0.0704159
1374	0.0740848
1386	0.097157
1398	0.0491782
1410	0.0286461
1422	0.0264589
1434	0.0301278
1446	0.050166
1458	0.0933469
1470	0.123757
1482	0.0492488
1494	0.021026
1506	0.0150286
1518	0.0105835
1530	0.00973687
1542	0.00712626
1554	0.0060679
1566	0.00543289
1578	0.00465676
1590	0.0045862
1602	0.00515066
1614	0.00543289
1626	0.00550345
1638	0.00599734
1650	0.00649124
1662	0.00811406
1674	0.0102308
1686	0.00938408
1698	0.0193326
1710	0.0249066
1722	0.0106541
1734	0.00740848
1746	0.00578567
1758	0.00529177
1770	0.00465676
1782	0.00359841
1794	0.00359841
1806	0.00317506
1818	0.00218727
1830	0.00190504
1842	0.0014817
1854	0.00155225
1866	0.0014817
1878	0.00127003
1890	0.0014817
1902	0.00134058
1914	0.00141114
1926	0.00141114
1938	0.00162281
1950	0.000917241
1962	0.00134058
1974	0.00119947
1986	0.000917241
1998	0.00119947
2010	0.00112891
2022	0.00119947
2034	0.00112891
2046	0.000846684
2058	0.000564456
2070	0.000564456
2082	0.000493899
2094	0.00070557
2106	0.000423342
2118	0.000776127
2130	0.000352785
2142	0.000846684
2154	0.000423342
2166	0.000493899
2178	0.000846684
2190	0.00134058
2202	0.00070557
2214	0.00127003
2226	0.000776127
2238	0.00070557
2250	0.00070557
2262	0.00070557
2274	0.000211671
2286	0.00070557
2298	0.00112891
2310	0.000917241
2322	0.00246949
2334	0.00190504
2346	0.0019756
2358	0.00254005
2370	0.00232838
2382	0.00239894
2394	0.00204615
2406	0.00218727
2418	0.00105835
2430	0.00119947
2442	0.00155225
2454	0.00176392
2466	0.00176392
2478	0.00190504
2490	0.00127003
2502	0.00239894
2514	0.00254005
2526	0.00352785
2538	0.0045862
2550	0.00543289
2562	0.0060679
2574	0.00663236
2586	0.00811406
2598	0.00924297
2610	0.0107952
2622	0.012418
2634	0.0150992
2646	0.0176392
2658	0.0208143
2670	0.0239894
2682	0.0266705
2694	0.0304101
2706	0.0393002
2718	0.0517183
2730	0.0637835
2742	0.0722504
2754	0.0766955
2766	0.0912302
2778	0.118254
2790	0.172018
2802	0.263319
2814	0.266423
2826	0.202428
2838	0.146124
2850	0.120441
2862	0.137092
2874	0.225994
2886	0.314049
2898	0.227546
2910	0.243774
2922	0.288084
2934	0.39907
2946	0.511679
2958	0.48522
2970	0.695692
2982	0.313767
2994	0.107599
3006	0.0588445
3018	0.0422636
3030	0.0333029
3042	0.0251183
3054	0.0189093
3066	0.0148875
3078	0.0129825
3090	0.0114302
3102	0.0100897
3114	0.0090313
3126	0.00790238
3138	0.00762016
3150	0.0065618
3162	0.00627957
3174	0.00585623
3186	0.00571512
3198	0.00388063
3210	0.00352785
3222	0.00296339
3234	0.00303395
3246	0.00232838
3258	0.00211671
3270	0.00211671
3282	0.00155225
3294	0.00127003
3306	0.00112891
3318	0.00183448
3330	0.00134058
3342	0.00155225
3354	0.00134058
3366	0.00155225
3378	0.00155225
3390	0.0014817
3402	0.00141114
3414	0.00176392
3426	0.00119947
3438	0.00119947
3450	0.00119947
3462	0.000846684
3474	0.000846684
3486	0.000423342
3498	0.000917241
3510	0.000776127
3522	0.00070557
3534	0.000987798
3546	7.0557e-05
3558	0.00112891
3570	0.000846684
3582	0.00119947
3594	0.00127003
3606	0.00127003
3618	0.00070557
3630	0.00204615
3642	0.00246949
3654	0.0019756
3666	0.00190504
3678	0.00254005
3690	0.00162281
3702	0.00162281
3714	0.00225782
3726	0.00225782
3738	0.00303395
3750	0.00275172
3762	0.00331618
3774	0.00324562
3786	0.00345729
3798	0.00395119
3810	0.00402175
3822	0.00409231
3834	0.00472732
3846	0.00366896
3858	0.00373952
3870	0.00423342
3882	0.00409231
3894	0.00486843
3906	0.00486843
3918	0.00437453
3930	0.00388063
3942	0.00409231
3954	0.00127003
3966	0.00155225
