Infrared Spectrum: Thiazolo[5,4,3-ij]quinolin-2-one, 2H,4H-,5,6-dihydro-,
Formula: C 10 H 9 N O S
CAS: 68729-18-0
Origin: Sadtler Research Labs Under US-EPA Contract
1/CM	ABSORBANCE
450	0.00424849
462	0.0153315
474	0.0151468
486	0.00535679
498	0.00997472
510	0.0149621
522	0.0223508
534	0.0232743
546	0.0140385
558	0.0075734
570	0.00350962
582	0.00350962
594	0.00258604
606	0.0136691
618	0.0112677
630	0.00535679
642	0.0105289
654	0.0125608
666	0.00535679
678	0.00203189
690	0
702	0.00683453
714	0.0360198
726	0.0748104
738	0.0611413
750	0.0718549
762	0.141863
774	0.0214272
786	0.00609566
798	0.0022166
810	0.00147774
822	0.0142232
834	0.0524596
846	0.0646509
858	0.0230896
870	0.0243826
882	0.0121913
894	0.0136691
906	0.0382364
918	0.0278923
930	0.0188411
942	0.00775811
954	0.00498736
966	0.00184717
978	0.00147774
990	0.0011083
1002	0.00166245
1014	0.0086817
1026	0.0203189
1038	0.0153315
1050	0.0101594
1062	0.0144079
1074	0.0326949
1086	0.037867
1098	0.0112677
1110	0.00406377
1122	0.00701925
1134	0.0129302
1146	0.031956
1158	0.134474
1170	0.168647
1182	0.0552304
1194	0.0820143
1206	0.0539374
1218	0.0908808
1230	0.242903
1242	0.103257
1254	0.0181023
1266	0.0120066
1278	0.0210577
1290	0.0652051
1302	0.0969764
1314	0.198571
1326	0.262668
1338	0.0766576
1350	0.0336185
1362	0.0223508
1374	0.0374976
1386	0.0236438
1398	0.011083
1410	0.00720396
1422	0.011083
1434	0.0450709
1446	0.107875
1458	0.185456
1470	0.115818
1482	0.229603
1494	0.211501
1506	0.0330643
1518	0.0190259
1530	0.0127455
1542	0.0147774
1554	0.0131149
1566	0.0210577
1578	0.0668676
1590	0.0870017
1602	0.0546762
1614	0.0400836
1626	0.0371281
1638	0.0369434
1650	0.0563387
1662	0.0821991
1674	0.14999
1686	0.212609
1698	0.261929
1710	0.879622
1722	1.77679
1734	0.497628
1746	0.285572
1758	0.203189
1770	0.0823838
1782	0.0345421
1794	0.022166
1806	0.0206883
1818	0.0269687
1830	0.0271534
1842	0.018287
1854	0.00664981
1866	0.00480264
1878	0.00406377
1890	0.00738868
1902	0.00942057
1914	0.00350962
1926	0.00203189
1938	0.00147774
1950	0.0011083
1962	0.000184717
1974	0.000369434
1986	0.000738868
1998	0.00166245
2010	0.000923585
2022	0.000738868
2034	0.000554151
2046	0.000369434
2058	0.000554151
2070	0.00147774
2082	0.000738868
2094	0.000554151
2106	0.000369434
2118	0.000554151
2130	0.00129302
2142	0.00147774
2154	0.00129302
2166	0.000923585
2178	0.000554151
2190	0.000923585
2202	0.00166245
2214	0.00184717
2226	0.0022166
2238	0.0022166
2250	0.00258604
2262	0.00277075
2274	0.00295547
2286	0.00277075
2298	0.00572623
2310	0.00683453
2322	0.00609566
2334	0.00443321
2346	0.00535679
2358	0.00424849
2370	0.00387906
2382	0.00480264
2394	0.00258604
2406	0.0011083
2418	0.000369434
2430	0.000369434
2442	0.000369434
2454	0.000923585
2466	0.00203189
2478	0.00258604
2490	0.0022166
2502	0.00129302
2514	0.00203189
2526	0.0022166
2538	0.00240132
2550	0.00203189
2562	0.00147774
2574	0.000738868
2586	0.00129302
2598	0.0022166
2610	0.00443321
2622	0.00554151
2634	0.00591094
2646	0.00535679
2658	0.00406377
2670	0.00277075
2682	0.00240132
2694	0.0022166
2706	0.0011083
2718	0.00129302
2730	0.00166245
2742	0.00350962
2754	0.00461792
2766	0.00369434
2778	0.00443321
2790	0.00461792
2802	0.00406377
2814	0.00461792
2826	0.00683453
2838	0.0114525
2850	0.036574
2862	0.0428543
2874	0.0402683
2886	0.0779506
2898	0.0860781
2910	0.0530138
2922	0.0350962
2934	0.0565234
2946	0.135952
2958	0.184902
2970	0.12727
2982	0.0314019
2994	0.0253062
3006	0.0075734
3018	0.00905113
3030	0.0229049
3042	0.0321408
3054	0.0350962
3066	0.0443321
3078	0.0434085
3090	0.0275228
3102	0.00923585
3114	0.00258604
3126	0.00166245
3138	0.00166245
3150	0.00166245
3162	0.0022166
3174	0.00258604
3186	0.00240132
3198	0.00184717
3210	0.00203189
3222	0.00147774
3234	0.00184717
3246	0.00166245
3258	0.0022166
3270	0.00240132
3282	0.00203189
3294	0.00184717
3306	0.0022166
3318	0.0022166
3330	0.00166245
3342	0.0022166
3354	0.00240132
3366	0.0022166
3378	0.00258604
3390	0.00332491
3402	0.00480264
3414	0.0105289
3426	0.0155162
3438	0.00646509
3450	0.00240132
3462	0.0022166
3474	0.00184717
3486	0.000923585
3498	0.000554151
3510	0.000554151
3522	0.000738868
3534	0.00129302
3546	0.000554151
3558	0.000738868
3570	0.00203189
3582	0.00258604
3594	0.00184717
3606	0.000554151
3618	0.000738868
3630	0.0011083
3642	0.000923585
3654	0.00147774
3666	0.000369434
3678	0.000554151
3690	0.00129302
3702	0.0011083
3714	0.000923585
3726	0.0011083
3738	0.00129302
3750	0.00203189
3762	0.00147774
3774	0.0011083
3786	0.00147774
3798	0.00203189
3810	0.0011083
3822	0.00129302
3834	0.00147774
3846	0.00166245
3858	0.00166245
3870	0.00147774
3882	0.000554151
3894	0.00203189
3906	0.00240132
3918	0.0022166
3930	0.00147774
3942	0.00166245
3954	0.00166245
3966	0.00369434
