Infrared Spectrum: p-Isobutyrotoluidide
Formula: C 11 H 15 N O
CAS: 6876-49-9
Origin: Sadtler Research Labs Under US-EPA Contract
1/CM	ABSORBANCE
450	0.0230765
462	0.0146151
474	0.0206589
486	0.0237358
498	0.0449442
510	0.0582406
522	0.0484057
534	0.0375817
546	0.0207139
558	0.0124173
570	0.00884598
582	0.00648339
594	0.00368125
606	0.00368125
618	0.00307686
630	0.00241754
642	0.000659328
654	0.00335158
666	0.00219776
678	0.00153843
690	0.00170326
702	0.00296698
714	0.00313181
726	0.00285709
738	0.0032417
750	0.00445046
762	0.00521968
774	0.0077471
786	0.019615
798	0.0474716
810	0.0631307
822	0.043131
834	0.0272522
846	0.0149448
858	0.00928554
870	0.00725261
882	0.00478013
894	0.0036263
906	0.0046153
918	0.00879104
930	0.0198348
942	0.0169777
954	0.00923059
966	0.00730755
978	0.00747238
990	0.00796688
1002	0.00741744
1014	0.013736
1026	0.0153294
1038	0.0165381
1050	0.0263182
1062	0.0335708
1074	0.0274171
1086	0.0277467
1098	0.0342851
1110	0.0439552
1122	0.0599439
1134	0.0624713
1146	0.102416
1158	0.0687349
1170	0.0367575
1182	0.0674163
1194	0.0467024
1206	0.0298346
1218	0.0348894
1230	0.0825259
1242	0.105492
1254	0.0541748
1266	0.0506034
1278	0.096152
1290	0.111756
1302	0.0708228
1314	0.0927455
1326	0.0386806
1338	0.0332961
1350	0.0331862
1362	0.0344499
1374	0.0367026
1386	0.0595044
1398	0.114943
1410	0.131316
1422	0.0600538
1434	0.0486804
1446	0.0561528
1458	0.0839544
1470	0.12736
1482	0.199721
1494	0.293016
1506	0.34796
1518	0.54944
1530	0.246369
1542	0.0734052
1554	0.0396696
1566	0.0292852
1578	0.0339004
1590	0.0697239
1602	0.0662075
1614	0.0562627
1626	0.0322521
1638	0.0132964
1650	0.0105492
1662	0.0136261
1674	0.0213732
1686	0.0391201
1698	0.0782403
1710	0.213348
1722	0.296698
1734	0.147305
1746	0.0470321
1758	0.0257138
1770	0.0141206
1782	0.00884598
1794	0.00456035
1806	0.00335158
1818	0.00296698
1830	0.00203293
1842	0.00258237
1854	0.00390102
1866	0.00357136
1878	0.00467024
1890	0.00390102
1902	0.00269226
1914	0.00170326
1926	0.0013736
1938	0.000714272
1950	0.000494496
1962	0.00054944
1974	0.000659328
1986	0.00082416
1998	0.000494496
2010	0.000714272
2022	0.000604384
2034	0.000769216
2046	0.00082416
2058	0.00082416
2070	0.00120877
2082	0.000934048
2094	0.000604384
2106	0.000494496
2118	0.000604384
2130	0.000714272
2142	0.000604384
2154	0.000494496
2166	0.000219776
2178	0
2190	0.000164832
2202	0.000164832
2214	0.000329664
2226	0.00054944
2238	0.000659328
2250	0.000879104
2262	0.00142854
2274	0.00203293
2286	0.00247248
2298	0.0027472
2310	0.00263731
2322	0.00203293
2334	0.000219776
2346	0.000164832
2358	0.00131866
2370	0.000164832
2382	0.00219776
2394	0.00142854
2406	0.00104394
2418	0.00126371
2430	0.00142854
2442	0.00142854
2454	0.00142854
2466	0.00115382
2478	0.00115382
2490	0.00109888
2502	0.00120877
2514	0.00153843
2526	0.00181315
2538	0.0013736
2550	0.000988992
2562	0.000988992
2574	0.00131866
2586	0.00148349
2598	0.0013736
2610	0.00120877
2622	0.00120877
2634	0.00153843
2646	0.00142854
2658	0.00120877
2670	0.00131866
2682	0.00126371
2694	0.00175821
2706	0.00219776
2718	0.00258237
2730	0.00329664
2742	0.00532957
2754	0.00434058
2766	0.00296698
2778	0.00280214
2790	0.00296698
2802	0.00357136
2814	0.00472518
2826	0.00631856
2838	0.00829654
2850	0.0126921
2862	0.0238457
2874	0.0497243
2886	0.0707679
2898	0.0658229
2910	0.0633504
2922	0.071647
2934	0.104503
2946	0.0943938
2958	0.0856577
2970	0.140382
2982	0.142909
2994	0.070658
3006	0.0463178
3018	0.0458233
3030	0.0663174
3042	0.0445596
3054	0.0395597
3066	0.0254391
3078	0.0129118
3090	0.0101097
3102	0.0101646
3114	0.00988992
3126	0.00747238
3138	0.00472518
3150	0.00351642
3162	0.00291203
3174	0.00263731
3186	0.00236259
3198	0.00280214
3210	0.00219776
3222	0.00197798
3234	0.00126371
3246	0.000934048
3258	0.00120877
3270	0.000219776
3282	0.000879104
3294	0.000988992
3306	0.000329664
3318	0.00115382
3330	0.000879104
3342	0.000879104
3354	0.00054944
3366	0.00131866
3378	0.00164832
3390	0.00258237
3402	0.0041208
3414	0.00593395
3426	0.00692294
3438	0.00802182
3450	0.0150547
3462	0.0259336
3474	0.0201095
3486	0.00862621
3498	0.00417574
3510	0.00208787
3522	0.00131866
3534	0.00109888
3546	0.000988992
3558	0.00131866
3570	0.000769216
3582	0.000879104
3594	0.000109888
3606	0.000329664
3618	0.00115382
3630	0.00126371
3642	0.000604384
3654	0.00082416
3666	0.00109888
3678	0.000439552
3690	0.00142854
3702	0.000714272
3714	0.000769216
3726	0.000879104
3738	0.00115382
3750	0.00115382
3762	0.00148349
3774	0.0013736
3786	0.000769216
3798	0.00120877
3810	0.00131866
3822	0.00192304
3834	0.00148349
3846	0.00214282
3858	0.00170326
3870	0.00236259
3882	0.00296698
3894	0.00219776
3906	0.00164832
3918	0.00269226
3930	0.00307686
3942	0.00142854
3954	0.00258237
3966	0.00175821
