Infrared Spectrum: Cyclohexane, 1,2-dimethyl-, trans-
Formula: C 8 H 16
CAS: 6876-23-9
Origin: Sadtler Research Labs Under US-EPA Contract
1/CM	ABSORBANCE
450	0
462	0.0321751
474	0.0588759
486	0.0422298
498	0.0385431
510	0.0455814
522	0.0392134
534	0.0463634
546	0.0536251
558	0.0374259
570	0.0359735
582	0.044911
594	0.0442407
606	0.044911
618	0.039772
630	0.0443524
642	0.0447993
654	0.0432353
666	0.0437938
678	0.0435704
690	0.0424532
702	0.0436821
714	0.0440173
726	0.0427884
738	0.0424532
750	0.0423415
762	0.0422298
774	0.0426767
786	0.0426767
798	0.0431235
810	0.0418946
822	0.0429001
834	0.0422298
846	0.0432353
858	0.0451345
870	0.0450228
882	0.047704
894	0.0463634
906	0.0436821
918	0.0430118
930	0.0452462
942	0.0502736
954	0.0523962
966	0.0567533
978	0.0531782
990	0.046922
1002	0.0518376
1014	0.0488212
1026	0.0427884
1038	0.0437938
1050	0.0421181
1062	0.041336
1074	0.0416712
1086	0.0415595
1098	0.0445759
1110	0.0443524
1122	0.0410009
1134	0.0394368
1146	0.0387665
1158	0.039772
1170	0.041336
1182	0.0408892
1194	0.0386548
1206	0.0383196
1218	0.0380962
1230	0.0389899
1242	0.0446876
1254	0.0520611
1266	0.0492681
1278	0.0402188
1290	0.0421181
1302	0.0464751
1314	0.0429001
1326	0.039772
1338	0.0399954
1350	0.0418946
1362	0.0521728
1374	0.0771978
1386	0.0816666
1398	0.0522845
1410	0.0388782
1422	0.0411126
1434	0.0617806
1446	0.109149
1458	0.154954
1470	0.118646
1482	0.0644619
1494	0.0416712
1506	0.0363087
1518	0.0354149
1530	0.0345212
1542	0.0342977
1554	0.0345212
1566	0.0342977
1578	0.0342977
1590	0.034186
1602	0.0338509
1614	0.0344095
1626	0.0339626
1638	0.0340743
1650	0.0344095
1662	0.0344095
1674	0.0339626
1686	0.033404
1698	0.0330688
1710	0.0323985
1722	0.0318399
1734	0.0317282
1746	0.0315048
1758	0.0315048
1770	0.0312813
1782	0.0316165
1794	0.0312813
1806	0.0315048
1818	0.0307227
1830	0.0304993
1842	0.0299407
1854	0.0302758
1866	0.0296055
1878	0.029829
1890	0.0294938
1902	0.0294938
1914	0.0292704
1926	0.0290469
1938	0.0294938
1950	0.0293821
1962	0.0289352
1974	0.0287118
1986	0.0284883
1998	0.0280415
2010	0.0286001
2022	0.0284883
2034	0.0283766
2046	0.0280415
2058	0.0277063
2070	0.0273712
2082	0.0272594
2094	0.0269243
2106	0.027036
2118	0.0274829
2130	0.0277063
2142	0.027818
2154	0.0273712
2166	0.0274829
2178	0.0277063
2190	0.0265891
2202	0.0265891
2214	0.0269243
2226	0.026254
2238	0.027036
2250	0.0265891
2262	0.0264774
2274	0.0269243
2286	0.0269243
2298	0.0277063
2310	0.0277063
2322	0.0271477
2334	0.0268126
2346	0.0283766
2358	0.0267008
2370	0.0269243
2382	0.0268126
2394	0.0275946
2406	0.0291587
2418	0.0293821
2430	0.0292704
2442	0.0287118
2454	0.0287118
2466	0.0288235
2478	0.0290469
2490	0.0288235
2502	0.0296055
2514	0.0299407
2526	0.0296055
2538	0.0293821
2550	0.0290469
2562	0.0287118
2574	0.0299407
2586	0.0329571
2598	0.0348563
2610	0.034186
2622	0.0331805
2634	0.0332923
2646	0.0340743
2658	0.0368673
2670	0.0402188
2682	0.039772
2694	0.0357501
2706	0.0354149
2718	0.0345212
2730	0.0366438
2742	0.0384313
2754	0.0374259
2766	0.036197
2778	0.0373141
2790	0.0412243
2802	0.0461399
2814	0.0493798
2826	0.0531782
2838	0.0876994
2850	0.238632
2862	0.414701
2874	0.393027
2886	0.307339
2898	0.276505
2910	0.41593
2922	0.749076
2934	0.949947
2946	0.677799
2958	0.425873
2970	0.360964
2982	0.260976
2994	0.121997
3006	0.0417829
3018	0.0359735
3030	0.036979
3042	0.0373141
3054	0.0363087
3066	0.0347446
3078	0.0351915
3090	0.0350798
3102	0.0367556
3114	0.0360852
3126	0.0354149
3138	0.0342977
3150	0.0346329
3162	0.0342977
3174	0.034186
3186	0.0330688
3198	0.031393
3210	0.0302758
3222	0.0302758
3234	0.0312813
3246	0.030611
3258	0.0310579
3270	0.030611
3282	0.0296055
3294	0.0290469
3306	0.0286001
3318	0.0302758
3330	0.0289352
3342	0.0289352
3354	0.0287118
3366	0.0284883
3378	0.0289352
3390	0.0280415
3402	0.0283766
3414	0.0284883
3426	0.0300524
3438	0.0300524
3450	0.0288235
3462	0.0301641
3474	0.0283766
3486	0.0300524
3498	0.0287118
3510	0.0291587
3522	0.0288235
3534	0.0287118
3546	0.0274829
3558	0.027036
3570	0.0299407
3582	0.0293821
3594	0.0267008
3606	0.0292704
3618	0.0291587
3630	0.0294938
3642	0.0315048
3654	0.0299407
3666	0.0292704
3678	0.0303876
3690	0.0337391
3702	0.0316165
3714	0.0319516
3726	0.0355266
3738	0.0311696
3750	0.0321751
3762	0.0329571
3774	0.0355266
3786	0.0329571
3798	0.0328454
3810	0.034186
3822	0.0335157
3834	0.0368673
3846	0.0347446
3858	0.0379845
3870	0.0358618
3882	0.0326219
3894	0.0345212
3906	0.0406657
3918	0.0350798
3930	0.0410009
3942	0.0375376
3954	0.036197
3966	0.0431235
