Infrared Spectrum: 5-Hexen-3-ol
Formula: C 6 H 12 O
CAS: 688-99-3
Origin: Sadtler Research Labs Under US-EPA Contract
1/CM	ABSORBANCE
450	0
462	0.016468
474	0.0189671
486	0.0203768
498	0.0142894
510	0.00807383
522	0.00589518
534	0.0043573
546	0.00410099
558	0.00358837
570	0.00429323
582	0.0064078
594	0.00813791
606	0.0134564
618	0.0237729
630	0.0389594
642	0.0422274
654	0.0240933
666	0.0133923
678	0.00627964
690	0.00499808
702	0.00800975
714	0.00743305
726	0.00192234
738	0.00102525
750	0.00179418
762	0.00973986
774	0.020505
786	0.0206972
798	0.0137127
810	0.0142253
822	0.0199923
834	0.0342177
846	0.0527362
858	0.0645265
870	0.0707421
882	0.0697809
894	0.096117
906	0.19704
918	0.311996
930	0.24497
942	0.132193
954	0.132129
966	0.224914
978	0.311996
990	0.344804
1002	0.331347
1014	0.280149
1026	0.223248
1038	0.169679
1050	0.151737
1062	0.15462
1074	0.161669
1086	0.161605
1098	0.170191
1110	0.18384
1122	0.176086
1134	0.146931
1146	0.107459
1158	0.0744586
1170	0.0617712
1182	0.066577
1194	0.0884917
1206	0.118352
1218	0.140395
1230	0.150263
1242	0.146418
1254	0.134051
1266	0.119505
1278	0.108997
1290	0.10387
1302	0.0974626
1314	0.0864412
1326	0.0824043
1338	0.0833014
1350	0.107715
1362	0.1411
1374	0.156286
1386	0.169935
1398	0.154108
1410	0.112777
1422	0.0991927
1434	0.119249
1446	0.140075
1458	0.136422
1470	0.11957
1482	0.0740101
1494	0.0359478
1506	0.0225555
1518	0.0162117
1530	0.016468
1542	0.0173011
1554	0.016404
1566	0.0180059
1578	0.0180059
1590	0.0160836
1602	0.0173651
1614	0.0233885
1626	0.0479303
1638	0.116942
1650	0.11675
1662	0.0337691
1674	0.0167244
1686	0.0158273
1698	0.0183904
1710	0.0160195
1722	0.0159554
1734	0.0121748
1746	0.00717674
1758	0.00788159
1770	0.00730489
1782	0.00724081
1794	0.0075612
1806	0.00877869
1818	0.0143535
1830	0.0269128
1842	0.0342817
1854	0.0243496
1866	0.0121107
1878	0.00820198
1890	0.00672819
1902	0.00666411
1914	0.0064078
1926	0.00589518
1938	0.00551071
1950	0.00557479
1962	0.00551071
1974	0.00627964
1986	0.00717674
1998	0.00557479
2010	0.00403691
2022	0.00333206
2034	0.00313982
2046	0.00307574
2058	0.00346021
2070	0.00371652
2082	0.00346021
2094	0.00352429
2106	0.00307574
2118	0.00333206
2130	0.00339613
2142	0.00339613
2154	0.00358837
2166	0.00352429
2178	0.00339613
2190	0.0032039
2202	0.00384468
2214	0.00422915
2226	0.00422915
2238	0.00416507
2250	0.00410099
2262	0.00422915
2274	0.00397284
2286	0.0037806
2298	0.00224273
2310	0.00096117
2322	0.000448546
2334	0.000448546
2346	0.000576702
2358	0.000448546
2370	0.000384468
2382	0.00384468
2394	0.00544663
2406	0.00595925
2418	0.00634372
2430	0.0058311
2442	0.00576702
2454	0.00538255
2466	0.00499808
2478	0.00480585
2490	0.00531847
2502	0.00512624
2514	0.00538255
2526	0.00531847
2538	0.0058311
2550	0.00595925
2562	0.00679227
2574	0.00800975
2586	0.00865053
2598	0.0096117
2610	0.0106369
2622	0.0110214
2634	0.0109573
2646	0.011534
2658	0.0126874
2670	0.0138408
2682	0.0167884
2694	0.0187749
2706	0.0180059
2718	0.0167884
2730	0.0173651
2742	0.0203127
2754	0.0236448
2766	0.0249263
2778	0.0270409
2790	0.0292196
2802	0.0315905
2814	0.0392798
2826	0.0582469
2838	0.0957325
2850	0.159362
2862	0.240805
2874	0.310073
2886	0.365885
2898	0.353518
2910	0.358837
2922	0.48161
2934	0.619506
2946	0.596951
2958	0.471166
2970	0.587531
2982	0.573178
2994	0.316545
3006	0.168397
3018	0.1081
3030	0.0645265
3042	0.0472896
3054	0.0517109
3066	0.0767654
3078	0.149302
3090	0.18871
3102	0.0988083
3114	0.0262079
3126	0.0149943
3138	0.012303
3150	0.010701
3162	0.0111496
3174	0.00999617
3186	0.00762528
3198	0.00627964
3210	0.00422915
3222	0.00339613
3234	0.00153787
3246	0.00179418
3258	0.00230681
3270	0.00237089
3282	0.00192234
3294	0.00192234
3306	0.00192234
3318	0.0020505
3330	0.00185826
3342	0.00217865
3354	0.00243496
3366	0.00294759
3378	0.00256312
3390	0.00307574
3402	0.00410099
3414	0.00397284
3426	0.00410099
3438	0.0037806
3450	0.0026272
3462	0.00269128
3474	0.00237089
3486	0.00153787
3498	0.00179418
3510	0.00243496
3522	0.00301167
3534	0.00333206
3546	0.00179418
3558	0.00301167
3570	0.00294759
3582	0.00499808
3594	0.00999617
3606	0.0313982
3618	0.07228
3630	0.0785596
3642	0.0710625
3654	0.0811227
3666	0.0670897
3678	0.0251186
3690	0.00986801
3702	0.00384468
3714	0.00147379
3726	0.000576702
3738	0.000512624
3750	0.00269128
3762	0.0011534
3774	0.000512624
3786	0.000448546
3798	0.000512624
3810	0.00326798
3822	0.00166603
3834	0.00166603
3846	0.00198642
3858	0.00243496
3870	0.000897092
3882	0.00173011
3894	0.00166603
3906	0.000897092
3918	0.000448546
3930	0.000448546
3942	0.000448546
3954	0.000448546
3966	0.000448546
