Infrared Spectrum: Salicylic Acid
Formula: C 7 H 6 O 3
CAS: 69-72-7
Origin: Sadtler Research Labs Under US-EPA Contract
1/CM	ABSORBANCE
450	0.00132665
462	0.000357175
474	0.0051025
486	0.00617402
498	0.0112765
510	0.0171444
522	0.0301558
534	0.0401056
546	0.0554132
558	0.0779152
570	0.103683
582	0.0452592
594	0.0186241
606	0.0206141
618	0.0270433
630	0.0574542
642	0.0992946
654	0.0702104
666	0.0436774
678	0.045004
690	0.0814359
702	0.118429
714	0.0762824
726	0.0377585
738	0.0823544
750	0.134043
762	0.0848036
774	0.0375034
786	0.0145421
798	0.0167362
810	0.0172975
822	0.0151034
834	0.0141339
846	0.0308191
858	0.0303089
870	0.0107663
882	0.00545967
894	0.00683735
906	0.00683735
918	0.00928655
930	0.0118888
942	0.0118888
954	0.0087763
966	0.00454123
978	0.006123
990	0.0083681
1002	0.00790887
1014	0.016277
1026	0.03684
1038	0.0379116
1050	0.0342378
1062	0.111337
1074	0.146544
1086	0.0680163
1098	0.0453102
1110	0.0676592
1122	0.114959
1134	0.160729
1146	0.341561
1158	0.338806
1170	0.156698
1182	0.236399
1194	0.179353
1206	0.0735781
1218	0.0823033
1230	0.0904673
1242	0.0915389
1254	0.108173
1266	0.116592
1278	0.0957739
1290	0.0640364
1302	0.0595972
1314	0.0792418
1326	0.0735781
1338	0.0587808
1350	0.0844974
1362	0.0943452
1374	0.0683225
1386	0.0831708
1398	0.129706
1410	0.141492
1422	0.0828646
1434	0.0286761
1446	0.0220938
1458	0.0467899
1470	0.0931206
1482	0.144656
1494	0.11996
1506	0.0564337
1518	0.0292884
1530	0.0124501
1542	0.0119909
1554	0.0165831
1566	0.0283189
1578	0.0635261
1590	0.0820992
1602	0.0678632
1614	0.0892427
1626	0.0701594
1638	0.0284209
1650	0.0211754
1662	0.022502
1674	0.0289822
1686	0.0669448
1698	0.217469
1710	0.469481
1722	0.446214
1734	0.152565
1746	0.0466879
1758	0.059138
1770	0.057097
1782	0.02439
1794	0.0151034
1806	0.0141339
1818	0.0110214
1830	0.0063271
1842	0.00459225
1854	0.00316355
1866	0.00270433
1878	0.00270433
1890	0.00357175
1902	0.00413303
1914	0.00459225
1926	0.00658222
1938	0.0053066
1950	0.00520455
1962	0.00362277
1974	0.002041
1986	0.00107153
1998	0.00132665
2010	0.0006123
2022	0.000561275
2034	0.00051025
2046	0.00051025
2058	0.00051025
2070	0.00051025
2082	0.000459225
2094	0.0010205
2106	0.00147973
2118	0.0010205
2130	0.00188792
2142	0.00188792
2154	0.0012246
2166	0.000867425
2178	0.0008164
2190	0.000867425
2202	0.00137768
2214	0.00127563
2226	0.00117358
2238	0.0008164
2250	0.0004082
2262	0.000867425
2274	0.00219408
2286	0.00423507
2298	0.00882733
2310	0.0139298
2322	0.0145932
2334	0.0134706
2346	0.0157157
2358	0.0168382
2370	0.0132155
2382	0.0091845
2394	0.0014287
2406	0.0014287
2418	0.00178587
2430	0.00158178
2442	0.0022451
2454	0.00290843
2466	0.00290843
2478	0.00280637
2490	0.0022451
2502	0.00193895
2514	0.00188792
2526	0.00250023
2538	0.0024492
2550	0.00301047
2562	0.00250023
2574	0.0030615
2586	0.00311253
2598	0.00290843
2610	0.00295945
2622	0.0034697
2634	0.0038779
2646	0.00357175
2658	0.00229612
2670	0.00198998
2682	0.00193895
2694	0.00260227
2706	0.00209202
2718	0.00255125
2730	0.00301047
2742	0.00362277
2754	0.00454123
2766	0.00433712
2778	0.0044902
2790	0.00443918
2802	0.00423507
2814	0.00377585
2826	0.00392892
2838	0.00403098
2850	0.00397995
2862	0.00418405
2874	0.00454123
2886	0.0055107
2898	0.00500045
2910	0.00479635
2922	0.00454123
2934	0.00505147
2946	0.00556173
2958	0.00505147
2970	0.00602095
2982	0.0065312
2994	0.0075517
3006	0.0110214
3018	0.0141339
3030	0.0161749
3042	0.0167872
3054	0.0214305
3066	0.0294924
3078	0.0304109
3090	0.0247471
3102	0.0181139
3114	0.0114806
3126	0.00724555
3138	0.00663325
3150	0.00617402
3162	0.00658222
3174	0.008164
3186	0.00923552
3198	0.0119909
3210	0.0168893
3222	0.0215836
3234	0.0329111
3246	0.0497494
3258	0.0701083
3270	0.0833238
3282	0.079701
3294	0.0686796
3306	0.057097
3318	0.0501065
3330	0.0442387
3342	0.0382177
3354	0.0333704
3366	0.028625
3378	0.0221449
3390	0.0185731
3402	0.0160729
3414	0.0139808
3426	0.012246
3438	0.010154
3450	0.00969475
3462	0.0089804
3474	0.00903142
3486	0.010205
3498	0.010205
3510	0.0118378
3522	0.0157667
3534	0.0209713
3546	0.0186752
3558	0.0158688
3570	0.0753639
3582	0.19068
3594	0.104091
3606	0.00744965
3618	0.00392892
3630	0.00438815
3642	0.00423507
3654	0.0042861
3666	0.00321457
3678	0.0016328
3690	0.0012246
3702	0.0008164
3714	0.00091845
3726	0.000867425
3738	0.00091845
3750	0.0008164
3762	5.1025e-05
3774	0.00030615
3786	0.000357175
3798	0.0004082
3810	0.0004082
3822	0.0004082
3834	0.000357175
3846	0.000153075
3858	5.1025e-05
3870	0.00091845
3882	0.00127563
3894	0.0014287
3906	0.0014287
3918	0.00051025
3930	5.1025e-05
3942	5.1025e-05
3954	5.1025e-05
3966	5.1025e-05
