Infrared Spectrum: 2-Pentene, 4,4-dimethyl-, (E)-
Formula: C 7 H 14
CAS: 690-08-4
Origin: Sadtler Research Labs Under US-EPA Contract
1/CM	ABSORBANCE
450	0.00850214
462	0.00691699
474	0.00381876
486	0.00403491
498	0.00396286
510	0.00381876
522	0.0036026
534	0.00036026
546	0.00259387
558	0.00482748
570	0.00100873
582	0.0034585
594	0.00389081
606	0.0036026
618	0.00403491
630	0.00403491
642	0.00317029
654	0.00324234
666	0.000648468
678	0.00309824
690	0.00504364
702	0.0052598
714	0.00511569
726	0.0036026
738	0.00425107
750	0.00432312
762	0.00396286
774	0.00403491
786	0.00439517
798	0.00482748
810	0.00511569
822	0.00432312
834	0.00439517
846	0.0052598
858	0.00655673
870	0.00713315
882	0.00907855
894	0.0111681
906	0.0132576
918	0.0167161
930	0.0206789
942	0.031847
954	0.0653512
966	0.125515
978	0.142519
990	0.0763751
1002	0.0259387
1014	0.0161396
1026	0.0154191
1038	0.0127532
1050	0.0091506
1062	0.00670084
1074	0.00590826
1086	0.00670084
1098	0.00662878
1110	0.00662878
1122	0.00634058
1134	0.00648468
1146	0.00691699
1158	0.00742136
1170	0.00951086
1182	0.0163558
1194	0.0296854
1206	0.0368186
1218	0.0232007
1230	0.0145545
1242	0.0133296
1254	0.0225523
1266	0.0316308
1278	0.0237772
1290	0.0117445
1302	0.0104475
1314	0.00857419
1326	0.00742136
1338	0.00965497
1350	0.0322793
1362	0.0782485
1374	0.0878314
1386	0.0543272
1398	0.0316308
1410	0.0188056
1422	0.0182292
1434	0.0268033
1446	0.0508687
1458	0.0769515
1470	0.0878314
1482	0.074862
1494	0.0432312
1506	0.0162838
1518	0.0102314
1530	0.00698904
1542	0.00821393
1554	0.00511569
1566	0.00425107
1578	0.00518774
1590	0.00403491
1602	0.00497159
1614	0.00439517
1626	0.00403491
1638	0.00518774
1650	0.0037467
1662	0.00489954
1674	0.0036026
1686	0.00475543
1698	0.0034585
1710	0.00338644
1722	0.00331439
1734	0.00590826
1746	0.00691699
1758	0.00843008
1770	0.00648468
1782	0.00338644
1794	0.00302618
1806	0.00259387
1818	0.00331439
1830	0.00417902
1842	0.0034585
1854	0.00295413
1866	0.00187335
1878	0.00187335
1890	0.00172925
1902	0.00136899
1914	0.00158514
1926	0.00151309
1938	0.00172925
1950	0.00115283
1962	0.00172925
1974	0.00122488
1986	0.0018013
1998	0.00208951
2010	0.00266592
2022	0.00201746
2034	0.00115283
2046	0.00100873
2058	0.000792572
2070	0.00100873
2082	0.000936676
2094	0.000576416
2106	0.00100873
2118	0.00144104
2130	0.00136899
2142	0.000936676
2154	0.000576416
2166	0.000288208
2178	0.000288208
2190	0.00036026
2202	0.000792572
2214	0.00072052
2226	0.00072052
2238	0.00072052
2250	0.000504364
2262	0.000648468
2274	0.00100873
2286	0.00115283
2298	0.00072052
2310	0.000144104
2322	0.000648468
2334	0.00136899
2346	0.00100873
2358	0.000648468
2370	0.00281003
2382	0.00201746
2394	0.0016572
2406	0.00158514
2418	0.00100873
2430	0.00100873
2442	0.00072052
2454	0.00108078
2466	0.00108078
2478	0.00122488
2490	0.00187335
2502	0.00216156
2514	0.00158514
2526	0.0016572
2538	0.00208951
2550	0.00259387
2562	0.00259387
2574	0.00259387
2586	0.00151309
2598	0.00115283
2610	0.00158514
2622	0.0016572
2634	0.00208951
2646	0.00216156
2658	0.00216156
2670	0.00317029
2682	0.00309824
2694	0.00367465
2706	0.0054039
2718	0.00799777
2730	0.0105916
2742	0.0135458
2754	0.0116004
2766	0.00756546
2778	0.00857419
2790	0.00965497
2802	0.0113122
2814	0.0151309
2826	0.019382
2838	0.02493
2850	0.0423666
2862	0.130198
2874	0.219975
2886	0.208446
2898	0.196702
2910	0.219398
2922	0.264071
2934	0.295053
2946	0.374742
2958	0.610208
2970	0.692059
2982	0.3434
2994	0.105196
3006	0.0646306
3018	0.0655673
3030	0.0742856
3042	0.065135
3054	0.0403491
3066	0.0246418
3078	0.0185174
3090	0.0154191
3102	0.013906
3114	0.0113122
3126	0.0101593
3138	0.00943881
3150	0.0088624
3162	0.0073493
3174	0.00814188
3186	0.00922266
3198	0.00864624
3210	0.0073493
3222	0.00792572
3234	0.00835803
3246	0.00763751
3258	0.00562006
3270	0.00410696
3282	0.00367465
3294	0.00511569
3306	0.0054039
3318	0.00453928
3330	0.00266592
3342	0.00237772
3354	0.00187335
3366	0.00281003
3378	0.00266592
3390	0.00309824
3402	0.0037467
3414	0.00273798
3426	0.00244977
3438	0.00129694
3450	0.00259387
3462	0.0018013
3474	0.00201746
3486	0.0016572
3498	0.00187335
3510	0.00151309
3522	0.00151309
3534	0.000936676
3546	0.000432312
3558	0.000936676
3570	0.00144104
3582	0.00129694
3594	0.00122488
3606	0.00072052
3618	0.00136899
3630	0.00367465
3642	0.00208951
3654	0.00187335
3666	0.000504364
3678	0.00324234
3690	0.00252182
3702	0.00223361
3714	0.00273798
3726	0.00144104
3738	0.00453928
3750	0.00317029
3762	0.00302618
3774	0.00108078
3786	0.00136899
3798	0.00144104
3810	0.00230566
3822	0.00317029
3834	0.0016572
3846	0.00230566
3858	0.00252182
3870	0.00281003
3882	0.00201746
3894	0.00338644
3906	0.00317029
3918	0.00273798
3930	0.00288208
3942	0.00187335
3954	0.00158514
3966	0.00252182
