Infrared Spectrum: 10-Undecenoic acid, ethyl ester
Formula: C 13 H 24 O 2
CAS: 692-86-4
Origin: Sadtler Research Labs Under US-EPA Contract
1/CM	ABSORBANCE
450	0.0688501
462	0.0175603
474	0.0247756
486	0.00065199
498	0.0214722
510	0.0184731
522	0.0246887
534	0.0108665
546	0.0237759
558	0.0104318
570	0.0148219
582	0.0162128
594	0.0126486
606	0.0162998
618	0.0192554
630	0.0207333
642	0.0156912
654	0.0132571
666	0.0147784
678	0.00673723
690	0.0294265
702	0.021081
714	0.0234282
726	0.0194293
738	0.0262969
750	0.0280356
762	0.0222981
774	0.0202117
786	0.02621
798	0.0195162
810	0.0273836
822	0.0260361
834	0.0294265
846	0.0364245
858	0.0345989
870	0.0375981
882	0.0388151
894	0.0435095
906	0.0713712
918	0.0925391
930	0.058766
942	0.0527243
954	0.0469433
966	0.047291
978	0.0491166
990	0.0583748
1002	0.0548976
1014	0.0528112
1026	0.0673723
1038	0.0925826
1050	0.0857584
1062	0.0718058
1074	0.0648078
1086	0.0698499
1098	0.0878448
1110	0.0977985
1122	0.0998849
1134	0.110708
1146	0.141916
1158	0.183296
1170	0.210636
1182	0.210289
1194	0.178906
1206	0.146002
1218	0.133049
1230	0.132571
1242	0.134788
1254	0.11914
1266	0.0915394
1278	0.0699368
1290	0.0611567
1302	0.0640254
1314	0.0616783
1326	0.0535501
1338	0.0514203
1350	0.0626345
1362	0.0517245
1374	0.0791951
1386	0.0487254
1398	0.0323822
1410	0.0259492
1422	0.0324691
1434	0.0478126
1446	0.0516376
1458	0.0619825
1470	0.0569405
1482	0.0284268
1494	0.01856
1506	0.0146046
1518	0.0143872
1530	0.0120835
1542	0.0150392
1554	0.0130398
1566	0.0122574
1578	0.0129094
1590	0.0130833
1602	0.0145176
1614	0.0149088
1626	0.0163867
1638	0.0296003
1650	0.0306435
1662	0.0136049
1674	0.0134745
1686	0.0166475
1698	0.0206898
1710	0.0257753
1722	0.0415535
1734	0.0826723
1746	0.213027
1758	0.318041
1770	0.141525
1782	0.065851
1794	0.0323387
1806	0.0220807
1818	0.0175603
1830	0.0144742
1842	0.00773695
1854	0.0067807
1866	0.00465086
1878	0.00504206
1890	0.00512899
1902	0.00495512
1914	0.00452046
1926	0.00391194
1938	0.00469433
1950	0.00443353
1962	0.00482473
1974	0.00491166
1986	0.004477
1998	0.0043466
2010	0.0042162
2022	0.00430313
2034	0.00412927
2046	0.00417274
2058	0.00417274
2070	0.00425967
2082	0.00395541
2094	0.00443353
2106	0.00395541
2118	0.0040858
2130	0.00395541
2142	0.00395541
2154	0.00430313
2166	0.00382501
2178	0.0043466
2190	0.00439007
2202	0.00443353
2214	0.0043466
2226	0.0040858
2238	0.0046074
2250	0.004477
2262	0.0043466
2274	0.0046074
2286	0.00391194
2298	0.00278182
2310	0.00147784
2322	0.000173864
2334	0.00152131
2346	0.00152131
2358	0.00021733
2370	0.0046074
2382	0.00465086
2394	0.00473779
2406	0.00443353
2418	0.004477
2430	0.0040858
2442	0.00417274
2454	0.00417274
2466	0.00425967
2478	0.0043466
2490	0.00465086
2502	0.00417274
2514	0.00473779
2526	0.00525939
2538	0.00543325
2550	0.00578098
2562	0.00556365
2574	0.00634604
2586	0.00630257
2598	0.00682416
2610	0.00751962
2622	0.00795428
2634	0.0084324
2646	0.00873667
2658	0.00969292
2670	0.00991025
2682	0.0105188
2694	0.0107796
2706	0.0106057
2718	0.00995371
2730	0.0106492
2742	0.010823
2754	0.011475
2766	0.0123009
2778	0.012127
2790	0.0136483
2802	0.0148654
2814	0.0182123
2826	0.0226458
2838	0.0323387
2850	0.0617652
2862	0.154478
2874	0.138483
2886	0.0843675
2898	0.0856715
2910	0.137831
2922	0.237672
2934	0.425228
2946	0.329994
2958	0.165779
2970	0.119618
2982	0.125312
2994	0.107883
3006	0.0707192
3018	0.0425532
3030	0.0266881
3042	0.0205594
3054	0.0197336
3066	0.0209506
3078	0.0285572
3090	0.0407711
3102	0.0161694
3114	0.0103014
3126	0.00886706
3138	0.00734575
3150	0.0062591
3162	0.00686763
3174	0.00517245
3186	0.00530285
3198	0.00425967
3210	0.00395541
3222	0.00365114
3234	0.00308609
3246	0.00382501
3258	0.00234716
3270	0.00173864
3282	0.00321648
3294	0.00208637
3306	0.00156478
3318	0.00212983
3330	0.00130398
3342	0.00169517
3354	0.00165171
3366	0.00173864
3378	0.0019125
3390	0.000956252
3402	0.00147784
3414	0.00134745
3426	0.00186904
3438	0.000956252
3450	0.000565058
3462	0.00186904
3474	0.0019125
3486	0.00212983
3498	0.00386847
3510	0.00182557
3522	0.000956252
3534	0.0024341
3546	0.000260796
3558	0.000695456
3570	0.0062591
3582	0.0105622
3594	0.00425967
3606	0.00182557
3618	0.00156478
3630	0.00417274
3642	0.00086932
3654	0.00452046
3666	0.00295569
3678	0.0021733
3690	0.00325995
3702	0.00186904
3714	0.00299915
3726	0.000130398
3738	0.000130398
3750	0.00586791
3762	0.00169517
3774	0.0024341
3786	0.000608524
3798	0.00291222
3810	0.00221677
3822	0.00399887
3834	0.00260796
3846	0.00265143
3858	0.0046074
3870	0.00378154
3882	0.00556365
3894	0.00286876
3906	0.00278182
3918	0.00317302
3930	0.00265143
3942	0.000999718
3954	0.00482473
3966	0.00573751
