Infrared Spectrum: Propanenitrile, 3-[(1-methylethyl)amino]-
Formula: C 6 H 12 N 2
CAS: 692-98-8
Origin: Sadtler Research Labs Under US-EPA Contract
1/CM	ABSORBANCE
450	0.0109464
462	0.0140135
474	0.00883113
486	0.0140135
498	0.00645148
510	0.00190372
522	0.0019566
534	0.0105233
546	0.0103118
558	0.0075091
570	0.00925417
582	0.00856672
594	0.0115809
606	0.017345
618	0.019989
630	0.0265991
642	0.0366465
654	0.0477515
666	0.0511888
678	0.060443
690	0.063986
702	0.0688511
714	0.0717595
726	0.0620294
738	0.0427278
750	0.0270751
762	0.0156528
774	0.0121626
786	0.0117396
798	0.00920129
810	0.0118453
822	0.015124
834	0.0162873
846	0.0123742
858	0.0121097
870	0.00888401
882	0.00470641
894	0.00634572
906	0.00666301
918	0.00877825
930	0.00904265
942	0.010682
954	0.012004
966	0.0176094
978	0.0147009
990	0.00655724
1002	0.00830232
1014	0.00809079
1026	0.0103647
1038	0.0164989
1050	0.0175036
1062	0.0141721
1074	0.0219985
1086	0.0478573
1098	0.0738219
1110	0.0794273
1122	0.0854557
1134	0.0852442
1146	0.0762544
1158	0.0911668
1170	0.184713
1182	0.183391
1194	0.0667887
1206	0.0318872
1218	0.0323103
1230	0.026229
1242	0.0214697
1254	0.0217341
1266	0.017768
1278	0.016869
1290	0.0200419
1302	0.0246425
1314	0.0505014
1326	0.0960848
1338	0.112213
1350	0.0907438
1362	0.082653
1374	0.118295
1386	0.149019
1398	0.0713365
1410	0.0306181
1422	0.0474871
1434	0.072447
1446	0.0877825
1458	0.0950272
1470	0.109569
1482	0.119405
1494	0.0632986
1506	0.0178738
1518	0.00978298
1530	0.00544674
1542	0.00211524
1554	0.00380743
1566	0.00301422
1578	0.00237964
1590	0.00359591
1602	0.0030671
1614	0.00327862
1626	0.00327862
1638	0.00269693
1650	0.00285557
1662	0.00274981
1674	0.00211524
1686	0.00132202
1698	0.00296134
1710	0.00502369
1722	0.00502369
1734	0.00391319
1746	0.00370167
1758	0.00370167
1770	0.00386031
1782	0.00296134
1794	0.00227388
1806	0.00243253
1818	0.00232676
1830	0.00200948
1842	0.00227388
1854	0.00116338
1866	0.00163931
1878	0.002221
1890	0.00137491
1902	0.0011105
1914	0.00126914
1926	0.000740334
1938	0.000634572
1950	0.000793215
1962	0
1974	0.000475929
1986	0.0011105
1998	0.000475929
2010	0.000423048
2022	0.0011105
2034	0.0011105
2046	0.000951858
2058	0.00132202
2070	0.000846096
2082	0.000846096
2094	0.00148067
2106	0.000846096
2118	0.00100474
2130	0.00148067
2142	0.000951858
2154	0.00100474
2166	0.00163931
2178	0.00185083
2190	0.00174507
2202	0.00264405
2214	0.00253829
2226	0.00290845
2238	0.00581691
2250	0.0143308
2262	0.0125857
2274	0.00438912
2286	0.00290845
2298	0.00269693
2310	0.00280269
2322	0.00338438
2334	0.00269693
2346	0.00296134
2358	0.00375455
2370	0.00301422
2382	0.00190372
2394	0.000793215
2406	0.000740334
2418	0.00132202
2430	0.00137491
2442	0.00100474
2454	0.00100474
2466	0.000898977
2478	0.00116338
2490	0.00158643
2502	0.00121626
2514	0.00116338
2526	0.00185083
2538	0.00227388
2550	0.00211524
2562	0.00280269
2574	0.00386031
2586	0.00491793
2598	0.00782639
2610	0.0117396
2622	0.0159172
2634	0.015547
2646	0.0122155
2658	0.00935994
2670	0.00925417
2682	0.0102589
2694	0.0104176
2706	0.0130087
2718	0.0159701
2730	0.016869
2742	0.0179795
2754	0.0185083
2766	0.0199361
2778	0.0267049
2790	0.0395021
2802	0.0517705
2814	0.0690626
2826	0.105603
2838	0.145317
2850	0.15547
2862	0.136063
2874	0.129453
2886	0.132255
2898	0.12591
2910	0.129347
2922	0.148807
2934	0.19365
2946	0.226489
2958	0.276515
2970	0.493168
2982	0.448325
2994	0.1551
3006	0.0429394
3018	0.0189843
3030	0.0119511
3042	0.00851384
3054	0.00597555
3066	0.00512946
3078	0.0061342
3090	0.00544674
3102	0.00565827
3114	0.00576403
3126	0.0041776
3138	0.00454777
3150	0.00534098
3162	0.00497081
3174	0.00602843
3186	0.00708605
3198	0.00623996
3210	0.00597555
3222	0.00565827
3234	0.00470641
3246	0.00311998
3258	0.00280269
3270	0.00148067
3282	0.00158643
3294	0.00153355
3306	0.00179795
3318	0.00158643
3330	0.00274981
3342	0.00296134
3354	0.00301422
3366	0.00428336
3378	0.00296134
3390	0.00227388
3402	0.00285557
3414	0.00248541
3426	0.00206236
3438	0.00269693
3450	0.00216812
3462	0.00211524
3474	0.00163931
3486	0.000951858
3498	0.000951858
3510	0.00142779
3522	0.00132202
3534	0.0011105
3546	0.00216812
3558	0.00153355
3570	0.00137491
3582	0.00163931
3594	0.00243253
3606	0.00142779
3618	0.00148067
3630	0.00211524
3642	0.00211524
3654	0.00264405
3666	0.0030671
3678	0.00216812
3690	0.00290845
3702	0.00380743
3714	0.00338438
3726	0.00460065
3738	0.00470641
3750	0.00364879
3762	0.00602843
3774	0.00597555
3786	0.00602843
3798	0.00793215
3810	0.00883113
3822	0.00671589
3834	0.00698029
3846	0.0072447
3858	0.00692741
3870	0.00803791
3882	0.00840808
3894	0.00703317
3906	0.00782639
3918	0.00867248
3930	0.00914841
3942	0.0083552
3954	0.00137491
3966	0.00200948
