Infrared Spectrum: Nonane, 1-bromo-
Formula: C 9 H 19 Br
CAS: 693-58-3
Origin: Sadtler Research Labs Under US-EPA Contract
1/CM	ABSORBANCE
450	0.0105832
462	0.000992178
474	0.00297653
486	0.00479553
498	0.00231508
510	0.00396871
522	0.00496089
534	0.00496089
546	0.00611843
558	0.0238123
570	0.0623419
582	0.0340648
594	0.013229
606	0.00181899
618	0.00810279
630	0.0125676
642	0.0375374
654	0.0747441
666	0.0292693
678	0.00909496
690	0.0158748
702	0.0162056
714	0.0330726
726	0.0426637
738	0.0415061
750	0.0319151
762	0.0261274
774	0.0183553
786	0.0148827
798	0.0165363
810	0.0138905
822	0.0142212
834	0.0138905
846	0.0117408
858	0.0120715
870	0.0148827
882	0.0158748
894	0.0162056
906	0.0147173
918	0.0125676
930	0.0135598
942	0.0140559
954	0.012733
966	0.0122369
978	0.0104179
990	0.00992178
1002	0.0120715
1014	0.0138905
1026	0.0135598
1038	0.0135598
1050	0.0120715
1062	0.0125676
1074	0.0119061
1086	0.00975642
1098	0.0100871
1110	0.0105832
1122	0.00843351
1134	0.00744133
1146	0.00826815
1158	0.0105832
1170	0.012733
1182	0.0163709
1194	0.0236469
1206	0.0403486
1218	0.0749094
1230	0.0904536
1242	0.0873117
1254	0.128652
1266	0.118896
1278	0.0940915
1290	0.0802011
1302	0.0676335
1314	0.0504357
1326	0.0342301
1338	0.04101
1350	0.0535776
1362	0.0515933
1374	0.0456402
1386	0.0484514
1398	0.0254659
1410	0.0206704
1422	0.0267888
1434	0.061515
1446	0.121046
1458	0.152961
1470	0.146512
1482	0.0611843
1494	0.0248044
1506	0.0155441
1518	0.0140559
1530	0.0102525
1542	0.00727597
1554	0.00843351
1566	0.00694525
1578	0.0044648
1590	0.00611843
1602	0.00595307
1614	0.00595307
1626	0.00463016
1638	0.00545698
1650	0.00479553
1662	0.00744133
1674	0.0057877
1686	0.00463016
1698	0.00496089
1710	0.00562234
1722	0.00545698
1734	0.00545698
1746	0.00628379
1758	0.00628379
1770	0.0044648
1782	0.00463016
1794	0.00380335
1806	0.00363799
1818	0.00363799
1830	0.00429944
1842	0.00347262
1854	0.00330726
1866	0.00380335
1878	0.00281117
1890	0.00347262
1902	0.00330726
1914	0.0031419
1926	0.00330726
1938	0.00363799
1950	0.0031419
1962	0.00347262
1974	0.00363799
1986	0.00297653
1998	0.0031419
2010	0.00264581
2022	0.00330726
2034	0.00231508
2046	0.00198436
2058	0.00248044
2070	0.000330726
2082	0.000661452
2094	0.0031419
2106	0.00330726
2118	0.0031419
2130	0.00330726
2142	0.00297653
2154	0.00347262
2166	0.00429944
2178	0.00363799
2190	0.00380335
2202	0.00396871
2214	0.00380335
2226	0.00347262
2238	0.00264581
2250	0.00248044
2262	0.00231508
2274	0.00198436
2286	0.0013229
2298	0.00115754
2310	0.00165363
2322	0.00231508
2334	0.00264581
2346	0.00115754
2358	0.00297653
2370	0.000661452
2382	0.00198436
2394	0.00264581
2406	0.00330726
2418	0.0031419
2430	0.00248044
2442	0.00264581
2454	0.00231508
2466	0.00148827
2478	0.00181899
2490	0.00165363
2502	0.00231508
2514	0.0013229
2526	0.0031419
2538	0.00363799
2550	0.0044648
2562	0.00413408
2574	0.00562234
2586	0.00744133
2598	0.00826815
2610	0.00975642
2622	0.0117408
2634	0.0137251
2646	0.0148827
2658	0.0171978
2670	0.0176938
2682	0.0171978
2694	0.016867
2706	0.0148827
2718	0.0142212
2730	0.0145519
2742	0.0167017
2754	0.0160402
2766	0.0167017
2778	0.0180246
2790	0.0251352
2802	0.0322458
2814	0.0420022
2826	0.0601921
2838	0.0985563
2850	0.230847
2862	0.594315
2874	0.568022
2886	0.405305
2898	0.349412
2910	0.485506
2922	0.914953
2934	1.65363
2946	1.20732
2958	0.662444
2970	0.792916
2982	0.339821
2994	0.133448
3006	0.105998
3018	0.10914
3030	0.0474592
3042	0.0309229
3054	0.0234815
3066	0.0183553
3078	0.0153788
3090	0.013229
3102	0.0122369
3114	0.00975642
3126	0.00859888
3138	0.00859888
3150	0.00859888
3162	0.00694525
3174	0.00826815
3186	0.00926033
3198	0.00644916
3210	0.00512625
3222	0.00347262
3234	0.00529162
3246	0.00396871
3258	0.00363799
3270	0.00347262
3282	0.00413408
3294	0.00297653
3306	0.00297653
3318	0.00363799
3330	0.0044648
3342	0.00479553
3354	0.0044648
3366	0.00496089
3378	0.00562234
3390	0.00529162
3402	0.00562234
3414	0.0044648
3426	0.00512625
3438	0.0057877
3450	0.00512625
3462	0.00347262
3474	0.00529162
3486	0.00429944
3498	0.00562234
3510	0.00529162
3522	0.0044648
3534	0.0031419
3546	0.00512625
3558	0.00363799
3570	0.00595307
3582	0.00611843
3594	0.00562234
3606	0.00429944
3618	0.00496089
3630	0.00429944
3642	0.00694525
3654	0.00545698
3666	0.00661452
3678	0.000661452
3690	0.00248044
3702	0.00363799
3714	0.00181899
3726	0.00396871
3738	0.00248044
3750	0.00297653
3762	0.0031419
3774	0.000165363
3786	0.00661452
3798	0.00347262
3810	0.0044648
3822	0.000496089
3834	0.000496089
3846	0.00181899
3858	0.000992178
3870	0.00148827
3882	0.00165363
3894	0.00248044
3906	0.000992178
3918	0.00181899
3930	0.00115754
3942	0.00297653
3954	0.00214972
3966	0.0044648
