Infrared Spectrum: Undecane, 1-bromo-
Formula: C 11 H 23 Br
CAS: 693-67-4
Origin: Sadtler Research Labs Under US-EPA Contract
1/CM	ABSORBANCE
450	0
462	0.0157951
474	0.0248945
486	0.0140783
498	0.0135632
510	0.0206023
522	0.0169969
534	0.0159668
546	0.0202589
558	0.0286716
570	0.0621503
582	0.0228342
594	0.0183704
606	0.0190571
618	0.0183704
630	0.0214608
642	0.0406896
654	0.0686744
666	0.0312469
678	0.0200873
690	0.0195722
702	0.0260963
714	0.0424064
726	0.0499606
738	0.0439516
750	0.0357107
762	0.0305601
774	0.026783
786	0.0228342
798	0.0236927
810	0.0226626
822	0.0163102
834	0.0200873
846	0.0199156
858	0.0187138
870	0.0199156
882	0.0199156
894	0.0218041
906	0.0218041
918	0.0202589
930	0.0195722
942	0.0183704
954	0.0178553
966	0.0195722
978	0.0188855
990	0.0176837
1002	0.0173403
1014	0.0169969
1026	0.018027
1038	0.0197439
1050	0.018027
1062	0.0181987
1074	0.0173403
1086	0.0159668
1098	0.0156234
1110	0.0159668
1122	0.0144216
1134	0.0144216
1146	0.014765
1158	0.0163102
1170	0.0169969
1182	0.0192288
1194	0.0255812
1206	0.0413763
1218	0.062322
1230	0.0698762
1242	0.0827527
1254	0.0971743
1266	0.101466
1278	0.0794906
1290	0.0698762
1302	0.0631804
1314	0.0482438
1326	0.0360541
1338	0.0398312
1350	0.0551112
1362	0.0539094
1374	0.047042
1386	0.0444667
1398	0.0242077
1410	0.0209457
1422	0.026783
1434	0.0539094
1446	0.109364
1458	0.143358
1470	0.138551
1482	0.0527076
1494	0.0238644
1506	0.0169969
1518	0.0130481
1530	0.0108162
1542	0.0106445
1554	0.00892767
1566	0.00789756
1578	0.00789756
1590	0.00721081
1602	0.00686744
1614	0.00652407
1626	0.00652407
1638	0.00703913
1650	0.0061807
1662	0.00532227
1674	0.0061807
1686	0.00686744
1698	0.0061807
1710	0.00515058
1722	0.00549395
1734	0.00583732
1746	0.00497889
1758	0.00515058
1770	0.00480721
1782	0.00480721
1794	0.00549395
1806	0.00549395
1818	0.00394878
1830	0.00343372
1842	0.00343372
1854	0.00360541
1866	0.00343372
1878	0.00377709
1890	0.00360541
1902	0.00377709
1914	0.00360541
1926	0.00360541
1938	0.00360541
1950	0.00326203
1962	0.00309035
1974	0.00291866
1986	0.00326203
1998	0.00257529
2010	0.00326203
2022	0.00394878
2034	0.00446384
2046	0.00429215
2058	0.00360541
2070	0.00343372
2082	0.00309035
2094	0.00291866
2106	0.00274698
2118	0.0024036
2130	0.0024036
2142	0.0024036
2154	0.00291866
2166	0.0024036
2178	0.00274698
2190	0.00257529
2202	0.00291866
2214	0.0024036
2226	0.00257529
2238	0.00257529
2250	0.00309035
2262	0.00291866
2274	0.00343372
2286	0.00377709
2298	0.00377709
2310	0.00326203
2322	0.00326203
2334	0.00343372
2346	0.0061807
2358	0.00343372
2370	0.00463552
2382	0.00515058
2394	0.00446384
2406	0.00463552
2418	0.00446384
2430	0.00429215
2442	0.00446384
2454	0.00480721
2466	0.00463552
2478	0.00480721
2490	0.00532227
2502	0.00532227
2514	0.00600901
2526	0.00583732
2538	0.00721081
2550	0.00703913
2562	0.00721081
2574	0.00789756
2586	0.00789756
2598	0.00909936
2610	0.0103012
2622	0.0109879
2634	0.0123614
2646	0.0137349
2658	0.014765
2670	0.0176837
2682	0.0188855
2694	0.0190571
2706	0.017512
2718	0.0164819
2730	0.0168252
2742	0.0195722
2754	0.0185421
2766	0.0181987
2778	0.0202589
2790	0.0254095
2802	0.0329637
2814	0.0432649
2826	0.0609485
2838	0.0959725
2850	0.218728
2862	0.643994
2874	0.540811
2886	0.358309
2898	0.323456
2910	0.477287
2922	0.892939
2934	1.71686
2946	1.14635
2958	0.562615
2970	0.644681
2982	0.265255
2994	0.115373
3006	0.0901351
3018	0.0940839
3030	0.0434366
3042	0.0317619
3054	0.0238644
3066	0.0197439
3078	0.0188855
3090	0.0151084
3102	0.0123614
3114	0.0140783
3126	0.0123614
3138	0.012018
3150	0.0130481
3162	0.0127048
3174	0.0116746
3186	0.00927104
3198	0.0103012
3210	0.0097861
3222	0.00789756
3234	0.00755418
3246	0.00652407
3258	0.00652407
3270	0.0061807
3282	0.00686744
3294	0.00772587
3306	0.00669575
3318	0.0073825
3330	0.00772587
3342	0.00566564
3354	0.0073825
3366	0.00669575
3378	0.0085843
3390	0.00480721
3402	0.00703913
3414	0.00669575
3426	0.00772587
3438	0.00703913
3450	0.00824093
3462	0.00652407
3474	0.00652407
3486	0.00789756
3498	0.00703913
3510	0.00995779
3522	0.0073825
3534	0.0085843
3546	0.0097861
3558	0.0108162
3570	0.00995779
3582	0.00703913
3594	0.00995779
3606	0.0118463
3618	0.0116746
3630	0.00995779
3642	0.00875599
3654	0.0128764
3666	0.0123614
3678	0.0133915
3690	0.011503
3702	0.0127048
3714	0.0130481
3726	0.0118463
3738	0.0137349
3750	0.0111596
3762	0.0135632
3774	0.0109879
3786	0.0127048
3798	0.0142499
3810	0.0142499
3822	0.0139066
3834	0.0116746
3846	0.0159668
3858	0.0140783
3870	0.0144216
3882	0.014765
3894	0.0204306
3906	0.0157951
3918	0.0152801
3930	0.0195722
3942	0.0166535
3954	0.0149367
3966	0.0139066
