Infrared Spectrum: Pentane, 1,1'-oxybis-
Formula: C 10 H 22 O
CAS: 693-65-2
Origin: Sadtler Research Labs Under US-EPA Contract
1/CM	ABSORBANCE
450	0.00159872
462	0.00124345
474	0.0111023
486	0.0113687
498	0.00355272
510	0.00834889
522	0.011724
534	0.00675017
546	0.0126122
558	0.00772717
570	0.011724
582	0.00701662
594	0.0120792
606	0.0069278
618	0.00364154
630	0.00968116
642	0.00799362
654	0.00968116
666	0.00621726
678	0.0130562
690	0.0130562
702	0.014655
714	0.0162537
726	0.0236256
738	0.0242473
750	0.021494
762	0.0193623
774	0.0220269
786	0.0155432
798	0.0142109
810	0.0130562
822	0.0158096
834	0.0157208
846	0.017586
858	0.0203393
870	0.024869
882	0.0246914
894	0.0230039
906	0.0261125
918	0.0237144
930	0.0201617
942	0.0202505
954	0.0240697
966	0.0298428
978	0.0360601
990	0.0457413
1002	0.0577317
1014	0.0626167
1026	0.0560442
1038	0.0513368
1050	0.0584422
1062	0.0935254
1074	0.105161
1086	0.141665
1098	0.277379
1110	0.401724
1122	0.46887
1134	0.419221
1146	0.196465
1158	0.100542
1170	0.0587975
1182	0.0404122
1194	0.036593
1206	0.0410339
1218	0.0485834
1230	0.0461854
1242	0.0450307
1254	0.0419221
1266	0.0357048
1278	0.0404122
1290	0.0437873
1302	0.0465406
1314	0.0392576
1326	0.0358825
1338	0.0456525
1350	0.0767388
1362	0.118039
1374	0.128608
1386	0.0874857
1398	0.0435208
1410	0.0362377
1422	0.0311751
1434	0.0466295
1446	0.0665247
1458	0.0891733
1470	0.118661
1482	0.0716761
1494	0.0352607
1506	0.0158984
1518	0.0139444
1530	0.0147438
1542	0.00524026
1554	0.0109246
1566	0.0121681
1578	0.00959234
1590	0.0125233
1602	0.0121681
1614	0.0121681
1626	0.0101253
1638	0.00683899
1650	0.00870416
1662	0.00994762
1674	0.00870416
1686	0.00506263
1698	0.00621726
1710	0.0103029
1722	0.0112799
1734	0.00834889
1746	0.0149214
1758	0.0148326
1770	0.0100364
1782	0.00968116
1794	0.00710544
1806	0.0088818
1818	0.00923707
1830	0.00710544
1842	0.00861535
1854	0.00941471
1866	0.00879298
1878	0.00897062
1890	0.00843771
1902	0.0088818
1914	0.00826007
1926	0.00843771
1938	0.00843771
1950	0.00852653
1962	0.00834889
1974	0.00914825
1986	0.00959234
1998	0.00976998
2010	0.0098588
2022	0.00914825
2034	0.00950353
2046	0.0088818
2058	0.00826007
2070	0.00861535
2082	0.00852653
2094	0.00843771
2106	0.00817126
2118	0.00852653
2130	0.00808244
2142	0.00737189
2154	0.00710544
2166	0.00666135
2178	0.00568435
2190	0.00603962
2202	0.00550672
2214	0.00577317
2226	0.00577317
2238	0.00559553
2250	0.00595081
2262	0.00506263
2274	0.00568435
2286	0.00506263
2298	0.0054179
2310	0.00772717
2322	0.0105693
2334	0.0122569
2346	0.0128786
2358	0.0161649
2370	0.0129674
2382	0.00595081
2394	0.00337508
2406	0.00381917
2418	0.00364154
2430	0.00301981
2442	0.00257572
2454	0.00319745
2466	0.00266454
2478	0.00239809
2490	0.00186518
2502	0.00275336
2514	0.00177636
2526	0.00213163
2538	0.00230927
2550	0.00284218
2562	0.00390799
2574	0.00550672
2586	0.00683899
2598	0.0079048
2610	0.00817126
2622	0.00826007
2634	0.00817126
2646	0.00968116
2658	0.0111911
2670	0.0138556
2682	0.0174083
2694	0.0206058
2706	0.0237144
2718	0.0254019
2730	0.0300205
2742	0.0334844
2754	0.0316192
2766	0.0331291
2778	0.0407675
2790	0.0576429
2802	0.0685675
2814	0.0643042
2826	0.0808244
2838	0.135092
2850	0.288836
2862	0.559642
2874	0.612667
2886	0.444978
2898	0.302514
2910	0.360068
2922	0.527401
2934	0.778223
2946	0.853452
2958	0.630963
2970	0.717383
2982	0.310152
2994	0.115996
3006	0.0648371
3018	0.0433432
3030	0.0324186
3042	0.0250467
3054	0.0190071
3066	0.0170531
3078	0.0140332
3090	0.0127898
3102	0.0108358
3114	0.0104805
3126	0.00959234
3138	0.00950353
3150	0.00870416
3162	0.00976998
3174	0.00781598
3186	0.00834889
3198	0.00719426
3210	0.00612844
3222	0.00515144
3234	0.00435208
3246	0.00435208
3258	0.00381917
3270	0.00381917
3282	0.00399681
3294	0.00355272
3306	0.00390799
3318	0.0034639
3330	0.00417445
3342	0.00355272
3354	0.00355272
3366	0.0044409
3378	0.00399681
3390	0.00408563
3402	0.00373036
3414	0.0034639
3426	0.00435208
3438	0.00435208
3450	0.00328627
3462	0.00284218
3474	0.00355272
3486	0.00399681
3498	0.00319745
3510	0.0034639
3522	0.00390799
3534	0.00328627
3546	0.00284218
3558	0.00373036
3570	0.00142109
3582	0.00399681
3594	0.00417445
3606	0.00364154
3618	0.00337508
3630	0.00142109
3642	0.00426326
3654	0.00408563
3666	0.00452972
3678	0.00159872
3690	0.00310863
3702	0.00479617
3714	0.0034639
3726	0.00452972
3738	0.00142109
3750	0.000799362
3762	0.00506263
3774	0.00683899
3786	0.00719426
3798	0.00515144
3810	0.00435208
3822	0.0054179
3834	0.00559553
3846	0.00710544
3858	0.00532908
3870	0.00612844
3882	0.0063949
3894	0.00603962
3906	0.00586199
3918	0.00648371
3930	0.00746071
3942	0.00870416
3954	0
3966	0.000710544
