Infrared Spectrum: Hexanedioic acid, bis(1-methylethyl) ester
Formula: C 12 H 22 O 4
CAS: 6938-94-9
Origin: Sadtler Research Labs Under US-EPA Contract
1/CM	ABSORBANCE
450	0
462	0.0518493
474	0.0530459
486	0.0491904
498	0.0513175
510	0.0515834
522	0.0421442
534	0.0414795
546	0.0505199
558	0.0297801
570	0.0542424
582	0.0570343
594	0.0599591
606	0.052647
618	0.0591614
630	0.055306
642	0.0547742
654	0.0514505
666	0.0497222
678	0.0507858
690	0.0479939
702	0.0509187
714	0.0494563
726	0.0503869
738	0.0547742
750	0.0497222
762	0.0582308
774	0.0592944
786	0.0584967
798	0.0610227
810	0.0648781
822	0.0926641
834	0.0834907
846	0.0607568
858	0.0586296
870	0.0610227
882	0.0692654
894	0.0796353
906	0.0836237
918	0.0860167
930	0.114467
942	0.141722
954	0.159802
966	0.15023
978	0.129623
990	0.082693
1002	0.0785717
1014	0.0792364
1026	0.0808318
1038	0.0930629
1050	0.119121
1062	0.152756
1074	0.156745
1086	0.180276
1098	0.324922
1110	0.834109
1122	0.736925
1134	0.61262
1146	0.621527
1158	0.528331
1170	0.578585
1182	0.631631
1194	0.534979
1206	0.477413
1218	0.449893
1230	0.474887
1242	0.51836
1254	0.50028
1266	0.385679
1278	0.297535
1290	0.258848
1302	0.219894
1314	0.204472
1326	0.193039
1338	0.218166
1350	0.212981
1362	0.255657
1374	0.355633
1386	0.321732
1398	0.151693
1410	0.09293
1422	0.100508
1434	0.120982
1446	0.123774
1458	0.149167
1470	0.151028
1482	0.0951901
1494	0.0584967
1506	0.0470632
1518	0.0433407
1530	0.0422771
1542	0.0390864
1554	0.0412136
1566	0.042543
1578	0.0417454
1590	0.0414795
1602	0.0413465
1614	0.0434737
1626	0.0417454
1638	0.0432078
1650	0.0430748
1662	0.0463985
1674	0.0499881
1686	0.0573002
1698	0.0757798
1710	0.105826
1722	0.173629
1734	0.464783
1746	1.17844
1758	0.923982
1770	0.296871
1782	0.1376
1794	0.0884098
1806	0.0655429
1818	0.0523811
1830	0.045069
1842	0.0410806
1854	0.0393523
1866	0.0364275
1878	0.0365604
1890	0.035098
1902	0.035098
1914	0.0346992
1926	0.0354968
1938	0.0362945
1950	0.0354968
1962	0.0356298
1974	0.0344333
1986	0.0339015
1998	0.0340344
2010	0.0344333
2022	0.0340344
2034	0.0339015
2046	0.0336356
2058	0.0333697
2070	0.0332368
2082	0.0337685
2094	0.0324391
2106	0.0321732
2118	0.0315084
2130	0.0312425
2142	0.030046
2154	0.0297801
2166	0.0297801
2178	0.0297801
2190	0.030179
2202	0.0305778
2214	0.0303119
2226	0.0303119
2238	0.030046
2250	0.0307108
2262	0.0309767
2274	0.0315084
2286	0.0320402
2298	0.0328379
2310	0.0344333
2322	0.0340344
2334	0.0339015
2346	0.035098
2358	0.0343003
2370	0.0339015
2382	0.032572
2394	0.0305778
2406	0.0297801
2418	0.0289824
2430	0.0292483
2442	0.0291154
2454	0.0287166
2466	0.0288495
2478	0.0289824
2490	0.0285836
2502	0.0293813
2514	0.0296472
2526	0.0299131
2538	0.0288495
2550	0.0277859
2562	0.02752
2574	0.0279189
2586	0.0279189
2598	0.0279189
2610	0.027653
2622	0.0288495
2634	0.030046
2646	0.030046
2658	0.0299131
2670	0.0309767
2682	0.0317743
2694	0.0324391
2706	0.032705
2718	0.032572
2730	0.032705
2742	0.0360286
2754	0.035098
2766	0.0348321
2778	0.0343003
2790	0.035098
2802	0.0362945
2814	0.0385546
2826	0.0433407
2838	0.0481268
2850	0.0535776
2862	0.0721902
2874	0.116196
2886	0.139063
2898	0.123508
2910	0.126831
2922	0.17549
2934	0.260044
2946	0.334893
2958	0.281848
2970	0.270547
2982	0.54495
2994	0.426095
3006	0.163259
3018	0.0756468
3030	0.0522482
3042	0.0440055
3054	0.0389535
3066	0.037624
3078	0.0370922
3090	0.0364275
3102	0.0364275
3114	0.0358957
3126	0.0356298
3138	0.0354968
3150	0.0354968
3162	0.0358957
3174	0.0365604
3186	0.0372252
3198	0.0360286
3210	0.0340344
3222	0.0332368
3234	0.032705
3246	0.0324391
3258	0.0313755
3270	0.0312425
3282	0.0309767
3294	0.0305778
3306	0.0315084
3318	0.0313755
3330	0.0307108
3342	0.0315084
3354	0.0305778
3366	0.0319073
3378	0.0316414
3390	0.0319073
3402	0.0311096
3414	0.0311096
3426	0.0321732
3438	0.0320402
3450	0.0332368
3462	0.0348321
3474	0.0410806
3486	0.040017
3498	0.0345662
3510	0.0315084
3522	0.030046
3534	0.0316414
3546	0.0311096
3558	0.0317743
3570	0.0349651
3582	0.0394853
3594	0.0296472
3606	0.0313755
3618	0.0315084
3630	0.030179
3642	0.0312425
3654	0.0291154
3666	0.0311096
3678	0.0320402
3690	0.0277859
3702	0.0288495
3714	0.0289824
3726	0.0289824
3738	0.0307108
3750	0.0269882
3762	0.0297801
3774	0.0299131
3786	0.0297801
3798	0.027653
3810	0.0297801
3822	0.030179
3834	0.0307108
3846	0.0271212
3858	0.0305778
3870	0.0316414
3882	0.0296472
3894	0.0315084
3906	0.0311096
3918	0.0283177
3930	0.0332368
3942	0.0308437
3954	0.0291154
3966	0.0297801
