Infrared Spectrum: Pyridine, 1-oxide
Formula: C 5 H 5 N O
CAS: 694-59-7
Origin: Sadtler Research Labs Under US-EPA Contract
1/CM	ABSORBANCE
450	0.0213988
462	0.0405838
474	0.0273941
486	0.0190929
498	0.0212143
510	0.0541425
522	0.0377245
534	0.0430742
546	0.0358798
558	0.00913136
570	0.0109761
582	0.00525745
594	0.0121752
606	0.00959254
618	0.01485
630	0.0184472
642	0.0471326
654	0.101552
666	0.125994
678	0.126917
690	0.0899301
702	0.0737888
714	0.0396615
726	0.069177
738	0.128946
750	0.204672
762	0.152558
774	0.128669
786	0.0522056
798	0.0291466
810	0.0354186
822	0.0396615
834	0.0943574
846	0.0771093
858	0.0597689
870	0.0406761
882	0.0657643
894	0.0378168
906	0.0261028
918	0.0196463
930	0.0213988
942	0.0172481
954	0.0190929
966	0.0198307
978	0.0232435
990	0.0593077
1002	0.248392
1014	0.296447
1026	0.221643
1038	0.0458413
1050	0.042613
1062	0.0308068
1074	0.0337584
1086	0.0250882
1098	0.0258261
1110	0.0234279
1122	0.0260106
1134	0.027763
1146	0.0718518
1158	0.155233
1170	0.209745
1182	0.129776
1194	0.0586621
1206	0.0366177
1218	0.0325593
1230	0.0335739
1242	0.0316369
1254	0.0418751
1266	0.0700994
1278	0.298199
1290	0.871169
1302	0.818226
1314	0.469573
1326	0.0318214
1338	0.0326515
1350	0.0202919
1362	0.0294233
1374	0.0373556
1386	0.0365255
1398	0.0405838
1410	0.0251804
1422	0.0420596
1434	0.0867941
1446	0.386284
1458	0.570572
1470	0.561348
1482	0.192035
1494	0.0925127
1506	0.0439043
1518	0.0381857
1530	0.0346807
1542	0.0546959
1554	0.0548804
1566	0.0532202
1578	0.0679779
1590	0.138446
1602	0.180783
1614	0.173035
1626	0.0784928
1638	0.0330205
1650	0.0225978
1662	0.0220444
1674	0.0295155
1686	0.0418751
1698	0.041414
1710	0.0280397
1722	0.0213988
1734	0.0290543
1746	0.0278553
1758	0.0322826
1770	0.0334817
1782	0.0225978
1794	0.0253649
1806	0.0218599
1818	0.0240736
1830	0.0295155
1842	0.0274863
1854	0.021491
1866	0.0178015
1878	0.0157724
1890	0.0215832
1902	0.0225056
1914	0.0256416
1926	0.0213065
1938	0.0157724
1950	0.0109761
1962	0.011345
1974	0.0107916
1986	0.0107916
1998	0.011345
2010	0.0126363
2022	0.0120829
2034	0.00996149
2046	0.00913136
2058	0.00959254
2070	0.00857795
2082	0.00903913
2094	0.00986925
2106	0.0106071
2118	0.013282
2130	0.0166947
2142	0.0169714
2154	0.0125441
2166	0.00885466
2178	0.00867018
2190	0.00977702
2202	0.00968478
2214	0.00950031
2226	0.00986925
2238	0.00977702
2250	0.00977702
2262	0.0102382
2274	0.0131897
2286	0.0174326
2298	0.0215832
2310	0.0225978
2322	0.01485
2334	0.008209
2346	0.0124519
2358	0.0135587
2370	0.0123596
2382	0.016787
2394	0.00977702
2406	0.00811677
2418	0.0112528
2430	0.0169714
2442	0.0171559
2454	0.011714
2466	0.00811677
2478	0.0069177
2490	0.00608758
2502	0.0059031
2514	0.0046118
2526	0.00451956
2538	0.00599534
2550	0.00728664
2562	0.0118984
2574	0.0224133
2586	0.026195
2598	0.0229668
2610	0.00599534
2622	0.0059031
2634	0.00636428
2646	0.00498074
2658	0.00498074
2670	0.00405838
2682	0.00488851
2694	0.00304379
2706	0.00304379
2718	0.00285932
2730	0.00451956
2742	0.00673323
2754	0.0103304
2766	0.0114373
2778	0.00719441
2790	0.0046118
2802	0.00479627
2814	0.00470404
2826	0.0056264
2838	0.00534969
2850	0.00599534
2862	0.00507298
2874	0.00534969
2886	0.0059031
2898	0.00645652
2910	0.00673323
2922	0.00811677
2934	0.00811677
2946	0.00765559
2958	0.00784006
2970	0.00737888
2982	0.00977702
2994	0.011714
3006	0.0141121
3018	0.0168792
3030	0.0219522
3042	0.0292388
3054	0.0344963
3066	0.0427975
3078	0.0497152
3090	0.0437199
3102	0.0416907
3114	0.0259183
3126	0.0166025
3138	0.00737888
3150	0.0069177
3162	0.0069177
3174	0.00498074
3186	0.00571863
3198	0.00498074
3210	0.00599534
3222	0.00553416
3234	0.00451956
3246	0.0035972
3258	0.00368944
3270	0.00368944
3282	0.00322826
3294	0.00267484
3306	0.00249037
3318	0.00285932
3330	0.00295155
3342	0.00202919
3354	0.00258261
3366	0.00295155
3378	0.00258261
3390	0.00313602
3402	0.00378168
3414	0.00516522
3426	0.00368944
3438	0.00424286
3450	0.00424286
3462	0.00415062
3474	0.00276708
3486	0.00433509
3498	0.00451956
3510	0.00636428
3522	0.00451956
3534	0.00516522
3546	0.0108838
3558	0.00728664
3570	0.0178938
3582	0.00931584
3594	0.011714
3606	0.00913136
3618	0.0130053
3630	0.0186317
3642	0.0103304
3654	0.0125441
3666	0.0106994
3678	0.016418
3690	0.0141121
3702	0.0135587
3714	0.0182627
3726	0.0219522
3738	0.0264717
3750	0.0228745
3762	0.0205686
3774	0.0178015
3786	0.0176171
3798	0.0203842
3810	0.0212143
3822	0.0238891
3834	0.0233357
3846	0.0215832
3858	0.024627
3870	0.0255494
3882	0.0251804
3894	0.0250882
3906	0.0257338
3918	0.0250882
3930	0.0228745
3942	0.0231512
3954	0
3966	0.00184472
