Infrared Spectrum: Benzene, 1-bromo-2-chloro-
Formula: C 6 H 4 Br Cl
CAS: 694-80-4
Origin: Sadtler Research Labs Under US-EPA Contract
1/CM	ABSORBANCE
450	0.0810586
462	0.0550746
474	0.0114386
486	0.00607233
498	0.0057899
510	0.00423651
522	0.00282434
534	0.00480138
546	0.00127095
558	0.00480138
570	0.00960276
582	0.00211826
594	0.00381286
606	0.00395408
618	0.00861424
630	0.0186406
642	0.146018
654	0.203776
666	0.0480138
678	0.0225947
690	0.0131332
702	0.0264076
714	0.11608
726	0.239786
738	0.879782
750	1.04896
762	0.245011
774	0.0166636
786	0.00903789
798	0.00875545
810	0.0241481
822	0.0245718
834	0.0131332
846	0.0103088
858	0.0155339
870	0.0218886
882	0.00819059
894	0.00706085
906	0.00819059
918	0.0104501
930	0.0200528
942	0.036434
954	0.0180758
966	0.0128507
978	0.0153927
990	0.0302204
1002	0.0612882
1014	0.248542
1026	0.634347
1038	0.358126
1050	0.0614294
1062	0.0153927
1074	0.0204765
1086	0.0254191
1098	0.0947566
1110	0.300933
1122	0.446528
1134	0.275091
1146	0.0597348
1158	0.0508381
1170	0.0362928
1182	0.0268312
1194	0.0165224
1206	0.0104501
1218	0.0057899
1230	0.00621355
1242	0.0365752
1254	0.0888255
1266	0.0488611
1278	0.0114386
1290	0.00917911
1302	0.0057899
1314	0.00466016
1326	0.00480138
1338	0.00762572
1350	0.0237245
1362	0.0281022
1374	0.0138393
1386	0.0213238
1398	0.0477313
1410	0.0536625
1422	0.143618
1434	0.31449
1446	0.505416
1458	0.955051
1470	0.285823
1482	0.112832
1494	0.0392583
1506	0.0134156
1518	0.00960276
1530	0.0105913
1542	0.0153927
1554	0.0369989
1566	0.139099
1578	0.202788
1590	0.0991343
1602	0.0316326
1614	0.0108737
1626	0.00706085
1638	0.0066372
1650	0.00903789
1662	0.0111561
1674	0.018217
1686	0.0271137
1698	0.0175109
1710	0.0141217
1722	0.0083318
1734	0.00593111
1746	0.00593111
1758	0.00734328
1770	0.0115798
1782	0.0330448
1794	0.0340333
1806	0.011721
1818	0.0187819
1830	0.0180758
1842	0.00607233
1854	0.00621355
1866	0.0100264
1878	0.0173697
1890	0.0132744
1902	0.0295144
1914	0.0402468
1926	0.0142629
1938	0.0242893
1950	0.0282434
1962	0.00607233
1974	0.00508381
1986	0.0049426
1998	0.00536625
2010	0.00466016
2022	0.00395408
2034	0.00437773
2046	0.00508381
2058	0.0057899
2070	0.00466016
2082	0.00338921
2094	0.00423651
2106	0.00522503
2118	0.00423651
2130	0.00381286
2142	0.00367164
2154	0.00353043
2166	0.00310677
2178	0.00353043
2190	0.00423651
2202	0.00353043
2214	0.00338921
2226	0.00381286
2238	0.00409529
2250	0.00423651
2262	0.00564868
2274	0.0066372
2286	0.00988519
2298	0.0105913
2310	0.00932032
2322	0.0114386
2334	0.00734328
2346	0.00480138
2358	0.00875545
2370	0.00437773
2382	0.00480138
2394	0.00451894
2406	0.00480138
2418	0.00508381
2430	0.00522503
2442	0.00381286
2454	0.00296556
2466	0.00268312
2478	0.00296556
2490	0.00268312
2502	0.00338921
2514	0.0074845
2526	0.0121447
2538	0.0105913
2550	0.00522503
2562	0.00649598
2574	0.0049426
2586	0.00607233
2598	0.0083318
2610	0.00466016
2622	0.00183582
2634	0.000988519
2646	0.00127095
2658	0.000282434
2670	0.00127095
2682	0.00197704
2694	0.00296556
2706	0.00437773
2718	0.00268312
2730	0.0016946
2742	0.00155339
2754	0.00240069
2766	0.00197704
2778	0.00183582
2790	0.00211826
2802	0.00268312
2814	0.00197704
2826	0.00296556
2838	0.00225947
2850	0.0016946
2862	0.00225947
2874	0.00254191
2886	0.00197704
2898	0.000988519
2910	0.00197704
2922	0.00240069
2934	0.00225947
2946	0.00225947
2958	0.00409529
2970	0.0057899
2982	0.00776694
2994	0.0114386
3006	0.012992
3018	0.0112974
3030	0.00875545
3042	0.00691963
3054	0.0224535
3066	0.154633
3078	0.27156
3090	0.101959
3102	0.0241481
3114	0.00960276
3126	0.0110149
3138	0.0197704
3150	0.01624
3162	0.00451894
3174	0.00296556
3186	0.00254191
3198	0.00268312
3210	0.00282434
3222	0.00240069
3234	0.00254191
3246	0.00310677
3258	0.00211826
3270	0.00183582
3282	0.00282434
3294	0.00268312
3306	0.00183582
3318	0.00296556
3330	0.00183582
3342	0.00254191
3354	0.00324799
3366	0.00338921
3378	0.00211826
3390	0.00225947
3402	0.00353043
3414	0.00338921
3426	0.00183582
3438	0.00437773
3450	0.00353043
3462	0.00254191
3474	0.00296556
3486	0.00310677
3498	0.00240069
3510	0.00367164
3522	0.00466016
3534	0.00395408
3546	0.00112974
3558	0.00197704
3570	0.00353043
3582	0.00324799
3594	0.000847302
3606	0.00296556
3618	0.00197704
3630	0.00282434
3642	0.00155339
3654	0.00225947
3666	0.00466016
3678	0.00395408
3690	0.00296556
3702	0.00127095
3714	0.00310677
3726	0.00790815
3738	0.00819059
3750	0.00508381
3762	0.0016946
3774	0.00451894
3786	0.00607233
3798	0.00649598
3810	0.00536625
3822	0.00522503
3834	0.00437773
3846	0.00409529
3858	0.00197704
3870	0.000423651
3882	0.00395408
3894	0.00607233
3906	0.00508381
3918	0.00240069
3930	0.0066372
3942	0.00946154
3954	0.0016946
3966	0.0105913
