Infrared Spectrum: 1-Propanol, dl-2-benzylamino-,
Formula: C 10 H 15 N O
CAS: 6940-81-4
Origin: Sadtler Research Labs Under US-EPA Contract
1/CM	ABSORBANCE
450	0.0512339
462	0.0500923
474	0.0357998
486	0.0238817
498	0.02548
510	0.0224662
522	0.0194524
534	0.008265
546	0.000684945
558	0.0061645
570	0.0200461
582	0.0333797
594	0.0363021
606	0.0313705
618	0.037672
630	0.0360738
642	0.0395442
654	0.045115
666	0.0601838
678	0.115162
690	0.274298
702	0.364573
714	0.258818
726	0.262973
738	0.295257
750	0.210095
762	0.0945681
774	0.0434255
786	0.0366217
798	0.0354345
810	0.0315075
822	0.0297266
834	0.0216899
846	0.0167583
858	0.0155711
870	0.016667
882	0.01653
894	0.0255713
906	0.0450694
918	0.0461196
930	0.041599
942	0.0324664
954	0.0312792
966	0.0539737
978	0.0945224
990	0.124523
1002	0.117034
1014	0.14288
1026	0.311924
1038	0.398547
1050	0.33334
1062	0.311467
1074	0.280234
1086	0.24932
1098	0.216717
1110	0.168405
1122	0.169044
1134	0.18425
1146	0.203794
1158	0.200187
1170	0.12297
1182	0.091189
1194	0.10918
1206	0.116532
1218	0.0915087
1230	0.0696817
1242	0.0583573
1254	0.053928
1266	0.0541107
1278	0.0626496
1290	0.082787
1302	0.103427
1314	0.120596
1326	0.150323
1338	0.163565
1350	0.142651
1362	0.141373
1374	0.182561
1386	0.181876
1398	0.148359
1410	0.118085
1422	0.083198
1434	0.105984
1446	0.219776
1458	0.290691
1470	0.251557
1482	0.137446
1494	0.128313
1506	0.0592706
1518	0.0137902
1530	0.0078997
1542	0.00570788
1554	0.00502293
1566	0.00648415
1578	0.0159364
1590	0.0283111
1602	0.0422383
1614	0.0264845
1626	0.0101828
1638	0.012466
1650	0.0222835
1662	0.0102742
1674	0.00479462
1686	0.00379003
1698	0.00356171
1710	0.00429232
1722	0.00506859
1734	0.00529691
1746	0.00292243
1758	0.00178086
1770	0.00392702
1782	0.00694078
1794	0.0175803
1806	0.0175346
1818	0.00698644
1830	0.00315075
1842	0.00324207
1854	0.00598185
1866	0.0109135
1878	0.0119637
1890	0.00657547
1902	0.00214616
1914	0.00255713
1926	0.00762572
1938	0.0158907
1950	0.0189501
1962	0.0110048
1974	0.0021005
1986	0.00150688
1998	0.00100459
2010	0.000593619
2022	0.000319641
2034	0.00136989
2046	0.00264845
2058	0.00324207
2070	0.0029681
2082	0.00178086
2094	0.00109591
2106	0.0012329
2118	0.00109591
2130	0.000547956
2142	0.000228315
2154	0.000228315
2166	0.00105025
2178	0.00091326
2190	0.000593619
2202	0.000182652
2214	0.000273978
2226	0.00105025
2238	0.000958923
2250	0.00109591
2262	0.00100459
2274	0.00173519
2286	0.00474895
2298	0.00771705
2310	0.0112331
2322	0.00730608
2334	0.00438365
2346	0.00758006
2358	0.00470329
2370	0.00287677
2382	0.00634716
2394	0.00200917
2406	0.00264845
2418	0.00255713
2430	0.00196351
2442	0.00219182
2454	0.00260279
2466	0.00283111
2478	0.00255713
2490	0.00173519
2502	0.00242014
2514	0.00374437
2526	0.00488594
2538	0.00570788
2550	0.00607318
2562	0.00771705
2574	0.0100002
2586	0.012192
2598	0.0132423
2610	0.0138359
2622	0.0142925
2634	0.0159364
2646	0.0173063
2658	0.0186762
2670	0.0194981
2682	0.0214616
2694	0.0248863
2706	0.0287677
2718	0.0334253
2730	0.0376263
2742	0.0403204
2754	0.0444758
2766	0.0541563
2778	0.0697274
2790	0.0958923
2802	0.134295
2814	0.176077
2826	0.218086
2838	0.256717
2850	0.272014
2862	0.280051
2874	0.328226
2886	0.34471
2898	0.297357
2910	0.299641
2922	0.374528
2934	0.45663
2946	0.376628
2958	0.324436
2970	0.428867
2982	0.331285
2994	0.143336
3006	0.0814171
3018	0.109683
3030	0.220781
3042	0.208771
3054	0.128724
3066	0.214844
3078	0.235986
3090	0.130688
3102	0.0820107
3114	0.0458913
3126	0.0181282
3138	0.00748873
3150	0.00561655
3162	0.00689511
3174	0.00735174
3186	0.00447497
3198	0.0024658
3210	0.00105025
3222	0.000684945
3234	0.000730608
3246	0.000684945
3258	9.1326e-05
3270	4.5663e-05
3282	0.00164387
3294	0.00283111
3306	0.00264845
3318	0.00223749
3330	0.00452064
3342	0.00776271
3354	0.0108678
3366	0.0114614
3378	0.0100915
3390	0.00917826
3402	0.00986321
3414	0.00936091
3426	0.00926959
3438	0.00844766
3450	0.00794536
3462	0.0101828
3474	0.0100002
3486	0.00817368
3498	0.00799103
3510	0.0110048
3522	0.0215986
3534	0.0428776
3546	0.0610971
3558	0.0490421
3570	0.0365761
3582	0.029407
3594	0.0224205
3606	0.0141555
3618	0.0112788
3630	0.012329
3642	0.0156167
3654	0.0277174
3666	0.0471242
3678	0.0525125
3690	0.0242927
3702	0.00712343
3714	0.000684945
3726	0
3738	0
3750	0
3762	0
3774	0
3786	0
3798	0
3810	0
3822	0
3834	0
3846	0
3858	0
3870	0
3882	0
3894	0
3906	0
3918	0
3930	0
3942	0
3954	0
3966	0
