Infrared Spectrum: Ketone, methyl 6-methyl-2-pyridyl
Formula: C 8 H 9 N O
CAS: 6940-57-4
Origin: Sadtler Research Labs Under US-EPA Contract
1/CM	ABSORBANCE
450	0.00620281
462	0.00832084
474	0.0614229
486	0.0706515
498	0.111499
510	0.0928908
522	0.103027
534	0.0823007
546	0.113466
558	0.0993962
570	0.0487147
582	0.0869906
594	0.326631
606	0.286388
618	0.0422094
630	0.0282909
642	0.0223906
654	0.0152801
666	0.0291986
678	0.0298037
690	0.0164904
702	0.00711054
714	0.00680796
726	0.0326782
738	0.107566
750	0.065659
762	0.0549175
774	0.0810904
786	0.247356
798	0.35008
810	0.127233
822	0.0140698
834	0.00590023
846	0.0140698
858	0.0726182
870	0.119669
882	0.128292
894	0.116794
906	0.097732
918	0.0582459
930	0.0338885
942	0.05991
954	0.131167
966	0.0771569
978	0.00590023
990	0.012103
1002	0.0298037
1014	0.0242061
1026	0.0326782
1038	0.028896
1050	0.0350988
1062	0.0627845
1074	0.154314
1086	0.361124
1098	0.2525
1110	0.285329
1122	0.22436
1134	0.048866
1146	0.114222
1158	0.1292
1170	0.0505302
1182	0.0511353
1194	0.0695925
1206	0.124056
1218	0.279126
1230	0.361276
1242	0.1997
1254	0.170199
1266	0.277765
1278	0.230563
1290	0.619373
1302	0.577466
1314	0.114979
1326	0.0650538
1338	0.130864
1350	0.379128
1362	0.706061
1374	0.427994
1386	0.183664
1398	0.114979
1410	0.123754
1422	0.15038
1434	0.169896
1446	0.259459
1458	0.357494
1470	0.192892
1482	0.0891086
1494	0.074585
1506	0.0865367
1518	0.0892599
1530	0.0931934
1542	0.11392
1554	0.126477
1566	0.234345
1578	0.386995
1590	0.464605
1602	0.3289
1614	0.0833597
1626	0.0574894
1638	0.0503789
1650	0.0695925
1662	0.0721644
1674	0.107868
1686	0.112256
1698	0.314376
1710	1.40955
1722	1.37914
1734	0.228899
1746	0.111802
1758	0.119669
1770	0.0962192
1782	0.0476557
1794	0.0338885
1806	0.0276857
1818	0.0270806
1830	0.027837
1842	0.0222393
1854	0.0127082
1866	0.0166417
1878	0.0184571
1890	0.0304089
1902	0.0231471
1914	0.0149775
1926	0.00968243
1938	0.00816955
1950	0.00983372
1962	0.0151288
1974	0.0190623
1986	0.0128595
1998	0.00605152
2010	0.00363091
2022	0.00393349
2034	0.00272318
2046	0.00453864
2058	0.00544637
2070	0.00544637
2082	0.00317705
2094	0.00181546
2106	0.00181546
2118	0.00226932
2130	0.0025719
2142	0.00181546
2154	0.00181546
2166	0.0025719
2178	0.00226932
2190	0.00166417
2202	0.00151288
2214	0.00136159
2226	0.00226932
2238	0.00332834
2250	0.00453864
2262	0.0037822
2274	0.00196674
2286	0.00196674
2298	0.00423606
2310	0.0075644
2322	0.00620281
2334	0.0049925
2346	0.00317705
2358	0.00393349
2370	0.00408478
2382	0.00242061
2394	0.00287447
2406	0.00302576
2418	0.00317705
2430	0.00287447
2442	0.0037822
2454	0.00453864
2466	0.00514379
2478	0.00453864
2490	0.00423606
2502	0.00423606
2514	0.00544637
2526	0.00408478
2538	0.00408478
2550	0.00408478
2562	0.0037822
2574	0.00287447
2586	0.00226932
2598	0.00196674
2610	0.00166417
2622	0.00287447
2634	0.00408478
2646	0.00438735
2658	0.00529508
2670	0.00650538
2682	0.0049925
2694	0.00302576
2706	0.00302576
2718	0.0025719
2730	0.00423606
2742	0.00665667
2754	0.00514379
2766	0.0037822
2778	0.0049925
2790	0.00680796
2802	0.00862342
2814	0.0113466
2826	0.0142211
2838	0.017852
2850	0.0251138
2862	0.0385784
2874	0.0449325
2886	0.0387297
2898	0.0405452
2910	0.0547663
2922	0.092437
2934	0.163391
2946	0.154465
2958	0.0903189
2970	0.0826032
2982	0.0904702
2994	0.0888061
3006	0.100909
3018	0.12451
3030	0.103784
3042	0.0850239
3054	0.101514
3066	0.200003
3078	0.181243
3090	0.0586997
3102	0.0322243
3114	0.0225419
3126	0.0208777
3138	0.0181546
3150	0.0169443
3162	0.0130108
3174	0.0113466
3186	0.00892599
3198	0.00574894
3210	0.00514379
3222	0.0049925
3234	0.00453864
3246	0.00438735
3258	0.00332834
3270	0.00363091
3282	0.00423606
3294	0.00438735
3306	0.00317705
3318	0.0037822
3330	0.00272318
3342	0.00363091
3354	0.00453864
3366	0.00363091
3378	0.00544637
3390	0.0087747
3402	0.0223906
3414	0.0349475
3426	0.0163391
3438	0.00529508
3450	0.00393349
3462	0.00408478
3474	0.00317705
3486	0.00302576
3498	0.0025719
3510	0.0012103
3522	0.00272318
3534	0.00166417
3546	0.00393349
3558	0.00181546
3570	0.00317705
3582	0.00242061
3594	0.00302576
3606	0.00544637
3618	0.00393349
3630	0.00529508
3642	0.00605152
3654	0.00801826
3666	0.00665667
3678	0.0037822
3690	0.00423606
3702	0.0049925
3714	0.0049925
3726	0.00438735
3738	0.00695925
3750	0.00468993
3762	0.00514379
3774	0.00181546
3786	0.0037822
3798	0.00317705
3810	0.00242061
3822	0.00105902
3834	0.00181546
3846	0.00196674
3858	0.00302576
3870	0.00332834
3882	0.00166417
3894	0.00544637
3906	0.000605152
3918	0.00363091
3930	0.0037822
3942	0.00317705
3954	0.00590023
3966	0.00529508
