Infrared Spectrum: Benzene, 1-tert-butyl-4-dodecyl-oxy-,
Formula: C 22 H 38 O
CAS: 6940-96-1
Origin: Sadtler Research Labs Under US-EPA Contract
1/CM	ABSORBANCE
450	0
462	0.0203385
474	0.024275
486	0.00893909
498	0.0237829
510	0.0268173
522	0.0300157
534	0.0341982
546	0.049452
558	0.0496981
570	0.0384627
582	0.0237009
594	0.0199284
606	0.01632
618	0.0122195
630	0.0190263
642	0.0156639
654	0.0224707
666	0.0220607
678	0.0258331
690	0.0182882
702	0.0209946
714	0.0252591
726	0.0274733
738	0.0250951
750	0.0218967
762	0.0205845
774	0.024931
786	0.0364944
798	0.0386267
810	0.0464997
822	0.0793037
834	0.0958697
846	0.0444494
858	0.0302617
870	0.0263252
882	0.0236189
894	0.0237829
906	0.024275
918	0.0278834
930	0.0296056
942	0.0291135
954	0.0301797
966	0.0340341
978	0.0382987
990	0.041333
1002	0.0522404
1014	0.0916052
1026	0.0933274
1038	0.0956237
1050	0.081764
1062	0.0637218
1074	0.0508462
1086	0.0346902
1098	0.0221427
1110	0.0241109
1122	0.0305077
1134	0.0280474
1146	0.0273093
1158	0.0336241
1170	0.0711027
1182	0.258085
1194	0.0744651
1206	0.0617535
1218	0.103169
1230	0.219541
1242	0.403489
1254	0.312786
1266	0.13384
1278	0.109565
1290	0.133758
1302	0.0976739
1314	0.0637218
1326	0.0437113
1338	0.0389547
1350	0.0513383
1362	0.0689704
1374	0.0751212
1386	0.073891
1398	0.0585551
1410	0.032558
1422	0.0294416
1434	0.0355103
1446	0.0569149
1458	0.0959517
1470	0.125229
1482	0.105465
1494	0.0934914
1506	0.233236
1518	0.295236
1530	0.0508462
1542	0.0279654
1554	0.0253411
1566	0.0268173
1578	0.0432193
1590	0.0419891
1602	0.073727
1614	0.0939014
1626	0.0351823
1638	0.0229628
1650	0.0141057
1662	0.0133676
1674	0.0127115
1686	0.016566
1698	0.0138597
1710	0.0110713
1722	0.0122195
1734	0.0116454
1746	0.0127115
1758	0.0118094
1770	0.0104973
1782	0.0109893
1794	0.00918512
1806	0.00951316
1818	0.0100872
1830	0.00992321
1842	0.0115634
1854	0.0114814
1866	0.0125475
1878	0.0129576
1890	0.0119735
1902	0.0105793
1914	0.00992321
1926	0.00943115
1938	0.00959517
1950	0.0104153
1962	0.0108253
1974	0.0102512
1986	0.0104153
1998	0.0104973
2010	0.0113994
2022	0.0136957
2034	0.016156
2046	0.016812
2058	0.0172221
2070	0.0172221
2082	0.016156
2094	0.0123015
2106	0.0104973
2118	0.00967718
2130	0.00967718
2142	0.0098412
2154	0.0090211
2166	0.00918512
2178	0.00910311
2190	0.00926713
2202	0.00934914
2214	0.00975919
2226	0.00959517
2238	0.00934914
2250	0.00951316
2262	0.0101692
2274	0.0103333
2286	0.0102512
2298	0.00934914
2310	0.00803698
2322	0.00680683
2334	0.00861105
2346	0.0100052
2358	0.0100872
2370	0.01632
2382	0.0153359
2394	0.0125475
2406	0.0128756
2418	0.0133676
2430	0.0133676
2442	0.0133676
2454	0.0132036
2466	0.0137777
2478	0.0141877
2490	0.0146798
2502	0.0143517
2514	0.0148438
2526	0.016238
2538	0.0170581
2550	0.0174681
2562	0.0184522
2574	0.0198464
2586	0.0183702
2598	0.016648
2610	0.0150078
2622	0.0158279
2634	0.0178782
2646	0.0175501
2658	0.0194364
2670	0.0239469
2682	0.0255871
2694	0.0241109
2706	0.0227168
2718	0.0229628
2730	0.024521
2742	0.0257511
2754	0.0266532
2766	0.0256691
2778	0.0267353
2790	0.0297696
2802	0.0334601
2814	0.0394468
2826	0.0485499
2838	0.066018
2850	0.126131
2862	0.310654
2874	0.294744
2886	0.239141
2898	0.227742
2910	0.34354
2922	0.52306
2934	0.8201
2946	0.592768
2958	0.489272
2970	0.547581
2982	0.222821
2994	0.0936554
3006	0.0555208
3018	0.0428912
3030	0.0426452
3042	0.0637218
3054	0.0496981
3066	0.0420711
3078	0.0363304
3090	0.0335421
3102	0.033214
3114	0.024931
3126	0.0205025
3138	0.0169761
3150	0.0135316
3162	0.0123835
3174	0.0130396
3186	0.0127936
3198	0.0110713
3210	0.0098412
3222	0.0073809
3234	0.008201
3246	0.00877507
3258	0.00893909
3270	0.0110713
3282	0.0145158
3294	0.0151718
3306	0.0152539
3318	0.0157459
3330	0.0157459
3342	0.0159919
3354	0.0148438
3366	0.016812
3378	0.0157459
3390	0.0176321
3402	0.0169761
3414	0.016484
3426	0.016156
3438	0.016484
3450	0.016074
3462	0.0145158
3474	0.0143517
3486	0.0134496
3498	0.0129576
3510	0.0127936
3522	0.0117274
3534	0.0126295
3546	0.0109893
3558	0.0100052
3570	0.0116454
3582	0.00975919
3594	0.0107433
3606	0.00836502
3618	0.0112354
3630	0.0120555
3642	0.0132036
3654	0.0112354
3666	0.0105793
3678	0.0145978
3690	0.0113174
3702	0.0113174
3714	0.0115634
3726	0.00869306
3738	0.0129576
3750	0.0133676
3762	0.0115634
3774	0.00934914
3786	0.0118094
3798	0.0125475
3810	0.0090211
3822	0.0183702
3834	0.0144338
3846	0.0141877
3858	0.0156639
3870	0.0157459
3882	0.0144338
3894	0.0145978
3906	0.00877507
3918	0.0141877
3930	0.016238
3942	0.00934914
3954	0.0194364
3966	0.0148438
