Infrared Spectrum: Benzoic acid, 2-bromo-5-fluoro-, methyl ester
Formula: C 8 H 6 Br F O 2
CAS: 6942-39-8
Origin: Sadtler Research Labs Under US-EPA Contract
1/CM	ABSORBANCE
450	0
462	0.0615828
474	0.0678059
486	0.0879013
498	0.0779184
510	0.0538039
522	0.0490069
534	0.0468029
546	0.060027
558	0.0789556
570	0.0917908
582	0.102552
594	0.104756
606	0.161282
618	0.172173
630	0.0709175
642	0.0522481
654	0.0469326
666	0.0722139
678	0.0663798
690	0.0519888
702	0.0487476
714	0.046025
726	0.0444693
738	0.0510813
750	0.0569155
762	0.0680652
774	0.104756
786	0.152725
798	0.196676
810	0.187471
822	0.278095
834	0.0684541
846	0.0523778
858	0.0630089
870	0.115516
882	0.218198
894	0.12874
906	0.0964581
918	0.0665094
930	0.0588602
942	0.0525074
954	0.0513406
966	0.0709175
978	0.182804
990	0.310377
1002	0.124592
1014	0.0875124
1026	0.200177
1038	0.377146
1050	0.111238
1062	0.0809004
1074	0.101774
1086	0.213919
1098	0.421745
1110	0.289763
1122	0.303117
1134	0.262926
1146	0.106441
1158	0.0936059
1170	0.120054
1182	0.238812
1194	0.597418
1206	0.843879
1218	0.520666
1230	0.420837
1242	0.911166
1254	0.574211
1266	0.563061
1278	0.531686
1290	1.04691
1302	1.11912
1314	0.357958
1326	0.129518
1338	0.100348
1350	0.0907536
1362	0.0919204
1374	0.0959395
1386	0.149354
1398	0.373775
1410	0.360421
1422	0.150521
1434	0.352124
1446	0.494477
1458	0.390629
1470	0.627237
1482	0.339548
1494	0.133926
1506	0.0925687
1518	0.0793446
1530	0.0732511
1542	0.0754551
1554	0.0851787
1566	0.130167
1578	0.23557
1590	0.202899
1602	0.131982
1614	0.111497
1626	0.076233
1638	0.0722139
1650	0.0601567
1662	0.0596381
1674	0.0657315
1686	0.0726029
1698	0.0869938
1710	0.116942
1722	0.210548
1734	0.385055
1746	0.780481
1758	0.846083
1770	0.576285
1782	0.293912
1794	0.129129
1806	0.0763627
1818	0.0619717
1830	0.0584712
1842	0.0543225
1854	0.0488773
1866	0.0509517
1878	0.0605456
1890	0.0635275
1902	0.0473215
1914	0.0445989
1926	0.0436914
1938	0.0445989
1950	0.0455064
1962	0.046414
1974	0.0473215
1986	0.0471919
1998	0.0479698
2010	0.0471919
2022	0.0475808
2034	0.0447286
2046	0.0433024
2058	0.0425245
2070	0.0451175
2082	0.0478401
2094	0.0491366
2106	0.0495255
2118	0.0497848
2130	0.0474512
2142	0.0466733
2154	0.0452472
2166	0.0435617
2178	0.0425245
2190	0.0431728
2202	0.0423949
2214	0.0413577
2226	0.0414874
2238	0.0409688
2250	0.0409688
2262	0.0408391
2274	0.0399316
2286	0.0400612
2298	0.0405798
2310	0.0417467
2322	0.0426542
2334	0.0422652
2346	0.0440803
2358	0.0427838
2370	0.0436914
2382	0.0433024
2394	0.0434321
2406	0.0427838
2418	0.0422652
2430	0.0421356
2442	0.041617
2454	0.0423949
2466	0.0434321
2478	0.04421
2490	0.0440803
2502	0.0443396
2514	0.0439507
2526	0.0429135
2538	0.0426542
2550	0.0425245
2562	0.0431728
2574	0.0425245
2586	0.042006
2598	0.0414874
2610	0.0418763
2622	0.0418763
2634	0.0421356
2646	0.0425245
2658	0.0422652
2670	0.0417467
2682	0.0418763
2694	0.0418763
2706	0.042006
2718	0.0413577
2730	0.0407095
2742	0.0405798
2754	0.0405798
2766	0.0413577
2778	0.0413577
2790	0.042006
2802	0.0427838
2814	0.0439507
2826	0.0475808
2838	0.0560079
2850	0.0689727
2862	0.0693617
2874	0.0544522
2886	0.0545818
2898	0.0640461
2910	0.0693617
2922	0.0687134
2934	0.0663798
2946	0.0844008
2958	0.217031
2970	0.211067
2982	0.0814189
2994	0.0785667
3006	0.090624
3018	0.0841416
3030	0.0820672
3042	0.0753255
3054	0.0631386
3066	0.0587305
3078	0.0705285
3090	0.0729918
3102	0.0543225
3114	0.0515999
3126	0.0480994
3138	0.0462843
3150	0.0455064
3162	0.0453768
3174	0.0440803
3186	0.0448582
3198	0.0436914
3210	0.0436914
3222	0.0426542
3234	0.0423949
3246	0.0430431
3258	0.0427838
3270	0.042006
3282	0.0433024
3294	0.0429135
3306	0.0426542
3318	0.0425245
3330	0.0425245
3342	0.0433024
3354	0.0430431
3366	0.0443396
3378	0.0434321
3390	0.0427838
3402	0.0431728
3414	0.0435617
3426	0.0429135
3438	0.0447286
3450	0.0451175
3462	0.0468029
3474	0.0491366
3486	0.0473215
3498	0.0509517
3510	0.048618
3522	0.046414
3534	0.0451175
3546	0.04421
3558	0.0430431
3570	0.0443396
3582	0.0471919
3594	0.0445989
3606	0.046025
3618	0.0451175
3630	0.0429135
3642	0.0473215
3654	0.0407095
3666	0.0480994
3678	0.041617
3690	0.0426542
3702	0.0477105
3714	0.0461547
3726	0.0458954
3738	0.0445989
3750	0.0429135
3762	0.0479698
3774	0.0443396
3786	0.0461547
3798	0.0448582
3810	0.0470622
3822	0.0399316
3834	0.0436914
3846	0.0447286
3858	0.0399316
3870	0.04421
3882	0.0462843
3894	0.0434321
3906	0.04421
3918	0.0435617
3930	0.0449879
3942	0.0439507
3954	0.0429135
3966	0.0455064
