Infrared Spectrum: Ethanol, 2,2'-oxybis-, dipropanoate
Formula: C 10 H 18 O 5
CAS: 6942-59-2
Origin: Sadtler Research Labs Under US-EPA Contract
1/CM	ABSORBANCE
450	0.0272947
462	0.0123643
474	0.00594884
486	0.0146971
498	0.0145805
510	0.01703
522	0.0145805
534	0.0183131
546	0.0156303
558	0.0141139
570	0.0145805
582	0.0116644
594	0.0109645
606	0.011781
618	0.010498
630	0.00898159
642	0.00489905
654	0.00349932
666	0.00419918
678	0.0029161
690	0.00116644
702	0.00221624
714	0.00174966
726	0.000349932
738	0.00256617
750	0.00454912
762	0.00571556
774	0.00804844
786	0.0127142
798	0.0207626
810	0.0316105
822	0.0317272
834	0.0339434
846	0.0438581
858	0.054706
870	0.0538895
882	0.0460744
894	0.0411753
906	0.0390757
918	0.0358097
930	0.0466576
942	0.0571556
954	0.0463077
966	0.0411753
978	0.0661371
990	0.0952981
1002	0.0914489
1014	0.0898159
1026	0.130291
1038	0.132741
1050	0.168551
1062	0.232588
1074	0.349349
1086	0.445114
1098	0.343633
1110	0.269448
1122	0.319021
1134	0.506702
1146	0.680734
1158	0.458761
1170	0.58532
1182	1.04945
1194	0.885911
1206	0.610631
1218	0.4296
1230	0.302924
1242	0.25965
1254	0.264665
1266	0.259533
1278	0.268864
1290	0.210776
1302	0.13624
1314	0.0963479
1326	0.145688
1338	0.20471
1350	0.244836
1362	0.178115
1374	0.136823
1386	0.136007
1398	0.110462
1410	0.0600717
1422	0.0575055
1434	0.0879496
1446	0.106029
1458	0.134957
1470	0.161669
1482	0.0697531
1494	0.0335935
1506	0.0220457
1518	0.015397
1530	0.0110812
1542	0.0107312
1554	0.00711528
1566	0.00524898
1578	0.00489905
1590	0.00419918
1602	0.00373261
1614	0.00489905
1626	0.00711528
1638	0.00734857
1650	0.010498
1662	0.0109645
1674	0.0171467
1686	0.0204127
1698	0.0296276
1710	0.0489905
1722	0.0937818
1734	0.199695
1746	0.519299
1758	1.16644
1770	0.722726
1782	0.273064
1794	0.115361
1806	0.0538895
1818	0.0281112
1830	0.0165634
1842	0.0103813
1854	0.00664871
1866	0.00618213
1878	0.00536562
1890	0.00571556
1902	0.0058322
1914	0.00664871
1926	0.00746522
1938	0.00816508
1950	0.00839837
1962	0.00758186
1974	0.00723193
1986	0.00746522
1998	0.00758186
2010	0.00758186
2022	0.00804844
2034	0.00758186
2046	0.00781515
2058	0.00664871
2070	0.00559891
2082	0.00443247
2094	0.00408254
2106	0.00338268
2118	0.00279946
2130	0.00233288
2142	0.00221624
2154	0.00198295
2166	0.00221624
2178	0.00256617
2190	0.00268281
2202	0.00244952
2214	0.00221624
2226	0.00198295
2238	0.00233288
2250	0.00128308
2262	0.00163302
2274	0.00163302
2286	0.00198295
2298	0.00209959
2310	0.00209959
2322	0.000233288
2334	0.000233288
2346	0.000116644
2358	0.0010498
2370	0.0010498
2382	0.00233288
2394	0.00116644
2406	0.000816508
2418	0.000699864
2430	0.000349932
2442	0.00058322
2454	0.000466576
2466	0.000466576
2478	0.00058322
2490	0.000466576
2502	0.000349932
2514	0.000349932
2526	0.000466576
2538	0.000466576
2550	0.00058322
2562	0.000466576
2574	0.00058322
2586	0.0010498
2598	0.000933152
2610	0.0010498
2622	0.00174966
2634	0.00128308
2646	0.00174966
2658	0.00163302
2670	0.00151637
2682	0.0018663
2694	0.00338268
2706	0.00548227
2718	0.00816508
2730	0.0103813
2742	0.0118977
2754	0.0130641
2766	0.0135307
2778	0.0138806
2790	0.0164468
2802	0.0187797
2814	0.0232122
2826	0.0304441
2838	0.0379093
2850	0.0591385
2862	0.111512
2874	0.153037
2886	0.165051
2898	0.181965
2910	0.153504
2922	0.134957
2934	0.151054
2946	0.220924
2958	0.332202
2970	0.23807
2982	0.244836
2994	0.275863
3006	0.137407
3018	0.070103
3030	0.0369761
3042	0.0212292
3054	0.0136473
3066	0.00968145
3078	0.0076985
3090	0.00653206
3102	0.00501569
3114	0.00489905
3126	0.00431583
3138	0.00349932
3150	0.00373261
3162	0.00349932
3174	0.00338268
3186	0.00338268
3198	0.00314939
3210	0.00256617
3222	0.00174966
3234	0.00151637
3246	0.000816508
3258	0.000466576
3270	0.00058322
3282	0.000349932
3294	0.000699864
3306	0.000699864
3318	0.00116644
3330	0.00058322
3342	0.00128308
3354	0.00151637
3366	0.000816508
3378	0.0010498
3390	0.0010498
3402	0.000816508
3414	0.00139973
3426	0.000933152
3438	0.000699864
3450	0.00116644
3462	0.00139973
3474	0.00233288
3486	0.00536562
3498	0.00921488
3510	0.00664871
3522	0.00233288
3534	0.00139973
3546	0.00116644
3558	0.00139973
3570	0.00431583
3582	0.00501569
3594	0.00513234
3606	0.00151637
3618	0.0018663
3630	0.00326603
3642	0.00233288
3654	0.00151637
3666	0.0010498
3678	0.00139973
3690	0.00116644
3702	0.00058322
3714	0.000349932
3726	0.000816508
3738	0.00174966
3750	0.000349932
3762	0.000116644
3774	0.00116644
3786	0.00116644
3798	0.00198295
3810	0.00139973
3822	0.00058322
3834	0.00151637
3846	0.0010498
3858	0.00139973
3870	0.000466576
3882	0.000116644
3894	0.0010498
3906	0.00139973
3918	0.00198295
3930	0.000699864
3942	0.00128308
3954	0.00209959
3966	0.00151637
