Infrared Spectrum: Anisole, m-(3-bromopropyl)-,
Formula: C 10 H 13 Br O
CAS: 6943-97-1
Origin: Sadtler Research Labs Under US-EPA Contract
1/CM	ABSORBANCE
450	0.0467618
462	0.0312358
474	0.00983009
486	0.00900326
498	0.00725773
510	0.00689025
522	0.0130455
534	0.0197521
546	0.0338082
558	0.0520903
570	0.0700049
582	0.0294903
594	0.0146992
606	0.0104732
618	0.00973822
630	0.0146073
642	0.021222
654	0.039596
666	0.0339
678	0.0371155
690	0.166744
702	0.127148
714	0.0412496
726	0.0379423
738	0.0454756
750	0.050161
762	0.0929724
774	0.180892
786	0.195867
798	0.0651358
810	0.0205789
822	0.0181903
834	0.0251724
846	0.0353699
858	0.0484155
870	0.0801106
882	0.0906757
894	0.067157
906	0.0442813
918	0.0362886
930	0.0301334
942	0.0137805
954	0.0177309
966	0.0382179
978	0.0283878
990	0.0323382
1002	0.038861
1014	0.0425358
1026	0.0779976
1038	0.200185
1050	0.334774
1062	0.246395
1074	0.0889302
1086	0.0714749
1098	0.0406065
1110	0.0335326
1122	0.0449244
1134	0.0696375
1146	0.207994
1158	0.438955
1170	0.248049
1182	0.117042
1194	0.0825911
1206	0.0717505
1218	0.0810293
1230	0.150667
1242	0.322188
1254	0.64851
1266	0.898213
1278	0.502988
1290	0.350025
1302	0.272395
1314	0.18916
1326	0.114562
1338	0.093983
1350	0.0790082
1362	0.0361049
1374	0.0184659
1386	0.0200277
1398	0.0246212
1410	0.0461187
1422	0.0900326
1434	0.25549
1446	0.306386
1458	0.266607
1470	0.274691
1482	0.346258
1494	0.430043
1506	0.121268
1518	0.0484155
1530	0.0381261
1542	0.0418927
1554	0.0502529
1566	0.0991277
1578	0.268077
1590	0.502161
1602	0.630504
1614	0.389437
1626	0.109601
1638	0.0351862
1650	0.0185577
1662	0.00992196
1674	0.00955448
1686	0.0118512
1698	0.0147911
1710	0.0135049
1722	0.0146073
1734	0.014148
1746	0.0110244
1758	0.0108407
1770	0.0100138
1782	0.00532846
1794	0.00238862
1806	0.00064309
1818	0.00137805
1830	0.0045935
1842	0.00542033
1854	0.00146992
1866	0.00036748
1878	0.00027561
1890	0.00119431
1902	0.00321545
1914	0.00946261
1926	0.00891139
1938	0.00202114
1950	0.00082683
1962	0.00165366
1974	0.00238862
1986	0.0027561
1998	0.00349106
2010	0.00376667
2022	0.00422602
2034	0.00523659
2046	0.0064309
2058	0.00606342
2070	0.00652277
2082	0.00652277
2094	0.00670651
2106	0.0055122
2118	0.00431789
2130	0.00321545
2142	0.00312358
2154	0.0036748
2166	0.00413415
2178	0.00404228
2190	0.00385854
2202	0.00440976
2214	0.00404228
2226	0.00266423
2238	0.00110244
2250	0.00045935
2262	0.00018374
2274	0.00082683
2286	0.0018374
2298	0.00376667
2310	0.00560407
2322	0.00652277
2334	0.00422602
2346	0.00633903
2358	0.00321545
2370	0.00440976
2382	0.00477724
2394	0.00303171
2406	0.0036748
2418	0.00431789
2430	0.00385854
2442	0.00321545
2454	0.00312358
2466	0.00303171
2478	0.00339919
2490	0.00376667
2502	0.00395041
2514	0.00431789
2526	0.00486911
2538	0.00514472
2550	0.00532846
2562	0.00532846
2574	0.00560407
2586	0.00505285
2598	0.00532846
2610	0.00569594
2622	0.00486911
2634	0.00486911
2646	0.00505285
2658	0.00413415
2670	0.00376667
2682	0.00486911
2694	0.00486911
2706	0.0055122
2718	0.00670651
2730	0.00716586
2742	0.00725773
2754	0.0073496
2766	0.00881952
2778	0.0112081
2790	0.0154342
2802	0.0187415
2814	0.0262748
2826	0.0451082
2838	0.115664
2850	0.172807
2862	0.121911
2874	0.113551
2886	0.103997
2898	0.123014
2910	0.176758
2922	0.22058
2934	0.266607
2946	0.397521
2958	0.368582
2970	0.242629
2982	0.160681
2994	0.129537
3006	0.217181
3018	0.171521
3030	0.120717
3042	0.12136
3054	0.119155
3066	0.109601
3078	0.105099
3090	0.0757928
3102	0.0434545
3114	0.0287553
3126	0.0138724
3138	0.00845204
3150	0.00716586
3162	0.00542033
3174	0.00404228
3186	0.00339919
3198	0.00330732
3210	0.00266423
3222	0.00248049
3234	0.00220488
3246	0.00202114
3258	0.0018374
3270	0.00238862
3282	0.0018374
3294	0.0018374
3306	0.0018374
3318	0.00110244
3330	0.00146992
3342	0.00119431
3354	0.00137805
3366	0.00146992
3378	0.00119431
3390	0.0009187
3402	0.00101057
3414	0.00082683
3426	0.00036748
3438	0.00128618
3450	0.00110244
3462	0.00137805
3474	0.00146992
3486	0.00073496
3498	0.00174553
3510	0.00128618
3522	0.00055122
3534	0.00128618
3546	0.0009187
3558	0.00137805
3570	0.00284797
3582	0.00229675
3594	0.00248049
3606	0.00045935
3618	0.00073496
3630	0.00119431
3642	0.00156179
3654	0.00146992
3666	0.00073496
3678	0.00101057
3690	0.00045935
3702	0.00018374
3714	0.00101057
3726	0.00082683
3738	0.00156179
3750	0.00211301
3762	0.00174553
3774	0.00137805
3786	0.00036748
3798	0.00055122
3810	0.00211301
3822	0.00018374
3834	0.00018374
3846	0.00018374
3858	0.00073496
3870	0.00018374
3882	0.00174553
3894	0.00119431
3906	0.0018374
3918	0.00119431
3930	0.00110244
3942	0.00036748
3954	0.00018374
3966	0.00082683
