Infrared Spectrum: As-triazine-3,5(2H,4H)-dione, 2-methyl-,
Formula: C 4 H 5 N 3 O 2
CAS: 6943-94-8
Origin: Sadtler Research Labs Under US-EPA Contract
1/CM	ABSORBANCE
450	0.00434717
462	0.0104604
474	0.0532528
486	0.0486339
498	0.0135849
510	0.0239094
522	0.0331472
534	0.0271698
546	0.0172528
558	0.0112755
570	0.00529811
582	0.00502641
594	0.00434717
606	0.011683
618	0.0182038
630	0.019834
642	0.0436075
654	0.0779773
666	0.0831396
678	0.0399396
690	0.0129057
702	0.0156226
714	0.0304302
726	0.0298868
738	0.0320604
750	0.083683
762	0.0590943
774	0.0259472
786	0.00937358
798	0.00679245
810	0.00516226
822	0.00584151
834	0.0074717
846	0.00964528
858	0.0183396
870	0.0438792
882	0.0202415
894	0.00597736
906	0.000543396
918	0.00108679
930	0.000815094
942	0.00407547
954	0.0207849
966	0.0487698
978	0.063849
990	0.060317
1002	0.0460528
1014	0.0149434
1026	0.00597736
1038	0.00448302
1050	0.00461887
1062	0.00815094
1074	0.0176604
1086	0.00570566
1098	0.00556981
1110	0.00774339
1122	0.0135849
1134	0.020649
1146	0.0277132
1158	0.0241811
1170	0.0312453
1182	0.0307019
1194	0.0203774
1206	0.012634
1218	0.0211924
1230	0.0434717
1242	0.0653434
1254	0.0504
1266	0.033283
1278	0.0406189
1290	0.0529811
1302	0.0493132
1314	0.0654792
1326	0.102294
1338	0.128649
1350	0.16166
1362	0.129736
1374	0.0991698
1386	0.11357
1398	0.140332
1410	0.126611
1422	0.0855849
1434	0.0633056
1446	0.0345056
1458	0.0149434
1470	0.0156226
1482	0.0216
1494	0.0293434
1506	0.0294792
1518	0.0271698
1530	0.0221434
1542	0.0108679
1554	0.0127698
1566	0.0275773
1578	0.0408905
1590	0.0392604
1602	0.0312453
1614	0.0221434
1626	0.0112755
1638	0.0135849
1650	0.0164377
1662	0.0283924
1674	0.0518943
1686	0.0691471
1698	0.0806943
1710	0.138702
1722	0.355245
1734	0.98803
1746	1.35849
1758	0.846339
1770	0.284196
1782	0.146853
1794	0.0979471
1806	0.0472755
1818	0.0255396
1830	0.0199698
1842	0.0154868
1854	0.0105962
1866	0.00652075
1878	0.00461887
1890	0.00489056
1902	0.00624905
1914	0.00543396
1926	0.00652075
1938	0.0066566
1950	0.00584151
1962	0.00489056
1974	0.00271698
1986	0.00135849
1998	0.00108679
2010	0.000271698
2022	0.000407547
2034	0.000679245
2046	0
2058	0.000407547
2070	0.00122264
2082	0.000815094
2094	0.000950943
2106	0.000950943
2118	0.00108679
2130	0.00176604
2142	0.00163019
2154	0.00135849
2166	0.00190189
2178	0.00163019
2190	0.00149434
2202	0.00176604
2214	0.00203774
2226	0.00203774
2238	0.00163019
2250	0.000407547
2262	0.000543396
2274	0.000543396
2286	0.00108679
2298	0.00271698
2310	0.00461887
2322	0.00380377
2334	0.00366792
2346	0.00448302
2358	0.00298868
2370	0.00380377
2382	0.00339623
2394	0.00108679
2406	0.00176604
2418	0.000950943
2430	0.00176604
2442	0.00217358
2454	0.00298868
2466	0.00339623
2478	0.00258113
2490	0.00163019
2502	0.00135849
2514	0.00163019
2526	0.00149434
2538	0.00217358
2550	0.00230943
2562	0.00298868
2574	0.00353207
2586	0.00353207
2598	0.00176604
2610	0.00163019
2622	0.000679245
2634	0.00108679
2646	0.00108679
2658	0.000815094
2670	0.000815094
2682	0.00163019
2694	0.00135849
2706	0.00149434
2718	0.00176604
2730	0.00149434
2742	0.00230943
2754	0.00298868
2766	0.00298868
2778	0.00285283
2790	0.00230943
2802	0.00230943
2814	0.00271698
2826	0.00353207
2838	0.00285283
2850	0.00258113
2862	0.00298868
2874	0.00448302
2886	0.00706415
2898	0.00964528
2910	0.0111396
2922	0.0124981
2934	0.0150792
2946	0.0210566
2958	0.0321962
2970	0.0326038
2982	0.0210566
2994	0.0123623
3006	0.00774339
3018	0.00502641
3030	0.00380377
3042	0.00353207
3054	0.00421132
3066	0.00461887
3078	0.00543396
3090	0.0066566
3102	0.00624905
3114	0.00448302
3126	0.00339623
3138	0.00230943
3150	0.00230943
3162	0.00230943
3174	0.00149434
3186	0.00176604
3198	0.000950943
3210	0.000543396
3222	0.000950943
3234	0.000950943
3246	0.000679245
3258	0.00108679
3270	0.00122264
3282	0.00122264
3294	0.00135849
3306	0.00122264
3318	0.00163019
3330	0.00135849
3342	0.00135849
3354	0.000679245
3366	0.00230943
3378	0.00203774
3390	0.00353207
3402	0.0133132
3414	0.0532528
3426	0.102974
3438	0.0888452
3450	0.0245887
3462	0.0131774
3474	0.0131774
3486	0.0111396
3498	0.00584151
3510	0.00230943
3522	0.00176604
3534	0.00203774
3546	0.00163019
3558	0.00122264
3570	0.00230943
3582	0.00190189
3594	0.00176604
3606	0.000950943
3618	0.00163019
3630	0.00163019
3642	0.00190189
3654	0.00122264
3666	0.00149434
3678	0.000271698
3690	0.000543396
3702	0.000543396
3714	0.00163019
3726	0.000407547
3738	0.00108679
3750	0.00163019
3762	0.00108679
3774	0.000950943
3786	0.000950943
3798	0.000679245
3810	0.00203774
3822	0.00149434
3834	0.00163019
3846	0.00285283
3858	0.000407547
3870	0.00230943
3882	0.00135849
3894	0.00217358
3906	0.00203774
3918	0.00190189
3930	0.00203774
3942	0.00203774
3954	0.00285283
3966	0.00149434
