Infrared Spectrum: N-(.alpha.-Methylbenzyl)-formamide
Formula: C 9 H 11 N O
CAS: 6948-01-2
Origin: Sadtler Research Labs Under US-EPA Contract
1/CM	ABSORBANCE
450	0.00672264
462	0.0141289
474	0.0330435
486	0.0413613
498	0.0423868
510	0.0447796
522	0.0458051
534	0.0551484
546	0.0434123
558	0.0313343
570	0.0297391
582	0.0314483
594	0.0328156
606	0.032018
618	0.0246117
630	0.0166357
642	0.0126477
654	0.0109385
666	0.0143568
678	0.034069
690	0.102777
702	0.12397
714	0.0594782
726	0.0361199
738	0.0361199
750	0.0564018
762	0.0683658
774	0.0308786
786	0.0082039
798	0.00307646
810	0.00250675
822	0.00330435
834	0.00387406
846	0.00421589
858	0.00376012
870	0.0023928
882	0.00227886
894	0.00170915
906	0.00353223
918	0.00432983
930	0.00432983
942	0.00432983
954	0.00489955
966	0.00581109
978	0.00717841
990	0.00934333
1002	0.0141289
1014	0.0325877
1026	0.0338411
1038	0.0117361
1050	0.0121919
1062	0.0144708
1074	0.0178891
1086	0.0190285
1098	0.0156102
1110	0.0145847
1122	0.0152684
1134	0.0234723
1146	0.034069
1158	0.0650615
1170	0.183106
1182	0.203616
1194	0.105967
1206	0.12021
1218	0.0909265
1230	0.0545787
1242	0.0554902
1254	0.0655172
1266	0.0573133
1278	0.0444378
1290	0.0390824
1302	0.0312204
1314	0.021991
1326	0.0191424
1338	0.0178891
1350	0.0178891
1362	0.0283718
1374	0.0557181
1386	0.0711004
1398	0.0455772
1410	0.0313343
1422	0.043982
1434	0.081925
1446	0.162938
1458	0.202591
1470	0.291922
1482	0.369517
1494	0.201451
1506	0.0805577
1518	0.0321319
1530	0.0173193
1542	0.0132174
1554	0.00763418
1566	0.00467166
1578	0.00786207
1590	0.0117361
1602	0.0205097
1614	0.0142429
1626	0.00444378
1638	0.00649475
1650	0.00695052
1662	0.0127616
1674	0.027916
1686	0.0569715
1698	0.114171
1710	0.287706
1722	0.925901
1734	0.987886
1746	0.309583
1758	0.0928635
1770	0.034069
1782	0.0165217
1794	0.0151544
1806	0.00865967
1818	0.00421589
1830	0.00376012
1842	0.00250675
1854	0.00250675
1866	0.00478561
1878	0.00489955
1890	0.00524138
1902	0.00273463
1914	0.00341829
1926	0.00410195
1938	0.00569715
1950	0.00626686
1962	0.00524138
1974	0.00125337
1986	0
1998	0.000455772
2010	0
2022	0.000113943
2034	0.000683658
2046	0.000797601
2058	0.00170915
2070	0.00182309
2082	0.000797601
2094	0.000455772
2106	0.000455772
2118	0.000113943
2130	0.000569715
2142	0.000227886
2154	0.000341829
2166	0.00136732
2178	0.00148126
2190	0.00182309
2202	0.00193703
2214	0.00216492
2226	0.0023928
2238	0.00273463
2250	0.00364618
2262	0.00467166
2274	0.00581109
2286	0.0074063
2298	0.0110525
2310	0.0149265
2322	0.0142429
2334	0.0128756
2346	0.0136732
2358	0.0142429
2370	0.0121919
2382	0.00991304
2394	0.00125337
2406	0.00136732
2418	0.000911544
2430	0.000911544
2442	0.00125337
2454	0.00113943
2466	0.00113943
2478	0.00170915
2490	0.00136732
2502	0.00170915
2514	0.00216492
2526	0.0015952
2538	0.00205097
2550	0.00227886
2562	0.00227886
2574	0.00273463
2586	0.0023928
2598	0.00250675
2610	0.00330435
2622	0.00330435
2634	0.00398801
2646	0.00467166
2658	0.00489955
2670	0.00467166
2682	0.00501349
2694	0.00546926
2706	0.00672264
2718	0.00934333
2730	0.0170915
2742	0.0425007
2754	0.0513883
2766	0.0265487
2778	0.0149265
2790	0.0126477
2802	0.0157241
2814	0.0284858
2826	0.0782788
2838	0.170231
2850	0.150974
2862	0.0814692
2874	0.0606177
2886	0.0491094
2898	0.0422729
2910	0.0436402
2922	0.052072
2934	0.0681379
2946	0.0623268
2958	0.0517301
2970	0.0708725
2982	0.106651
2994	0.0928635
3006	0.0329295
3018	0.0296252
3030	0.0590225
3042	0.0746327
3054	0.0493373
3066	0.0664288
3078	0.0832923
3090	0.0505907
3102	0.0368036
3114	0.0238141
3126	0.0107106
3138	0.00455772
3150	0.00398801
3162	0.00455772
3174	0.00387406
3186	0.0023928
3198	0.00307646
3210	0.0023928
3222	0.00216492
3234	0.00182309
3246	0.00182309
3258	0.00136732
3270	0.00102549
3282	0.00113943
3294	0.00113943
3306	0.00102549
3318	0.00102549
3330	0.00102549
3342	0.000911544
3354	0.0015952
3366	0.00216492
3378	0.00216492
3390	0.00432983
3402	0.00638081
3414	0.0126477
3426	0.0211934
3438	0.0295112
3450	0.0412474
3462	0.0385127
3474	0.0162938
3486	0.00626686
3498	0.0031904
3510	0.0023928
3522	0.00193703
3534	0.00170915
3546	0.00136732
3558	0.000683658
3570	0.00136732
3582	0.0015952
3594	0.0023928
3606	0.000797601
3618	0.00227886
3630	0.00353223
3642	0.00250675
3654	0.00182309
3666	0.0023928
3678	0.0031904
3690	0.00113943
3702	0.00227886
3714	0.00216492
3726	0.00170915
3738	0.000683658
3750	0.00364618
3762	0.00182309
3774	0.000911544
3786	0.000683658
3798	0.000569715
3810	0.00307646
3822	0.00262069
3834	0.0023928
3846	0.0015952
3858	0.00170915
3870	0.00148126
3882	0.00284857
3894	0.0015952
3906	0.00102549
3918	0.00182309
3930	0.00227886
3942	0.0015952
3954	0.00182309
3966	0.00262069
