Infrared Spectrum: Cyclohexane, ethenyl-
Formula: C 8 H 14
CAS: 695-12-5
Origin: Sadtler Research Labs Under US-EPA Contract
1/CM	ABSORBANCE
450	0
462	0.00677176
474	0.00446648
486	0.00878888
498	0.0057632
510	0.00518688
522	0.0057632
534	0.00446648
546	0.0057632
558	0.00633952
570	0.00619544
582	0.00561912
594	0.00475464
606	0.00619544
618	0.00878888
630	0.0115264
642	0.0181541
654	0.028816
666	0.0249258
678	0.0118146
690	0.00778032
702	0.00705992
714	0.00518688
726	0.00547504
738	0.00446648
750	0.00461056
762	0.0050428
774	0.0057632
786	0.00619544
798	0.0050428
810	0.00518688
822	0.0064836
834	0.0148402
846	0.0185863
858	0.0157047
870	0.0193067
882	0.0430799
894	0.0727604
906	0.128952
918	0.145665
930	0.0733367
942	0.0329943
954	0.0231969
966	0.0244936
978	0.0387575
990	0.0772269
1002	0.0730486
1014	0.0383253
1026	0.023341
1038	0.0167133
1050	0.0141198
1062	0.012679
1074	0.0102297
1086	0.00907704
1098	0.00994152
1110	0.0100856
1122	0.00893296
1134	0.00922112
1146	0.0110942
1158	0.0102297
1170	0.00878888
1182	0.00835664
1194	0.00878888
1206	0.00749216
1218	0.00705992
1230	0.0118146
1242	0.0146962
1254	0.016281
1266	0.0177218
1278	0.0135435
1290	0.0122468
1302	0.0131113
1314	0.010806
1326	0.0093652
1338	0.0113823
1350	0.0175778
1362	0.0139758
1374	0.0086448
1386	0.00806848
1398	0.0102297
1410	0.0194508
1422	0.0279515
1434	0.0374608
1446	0.0893296
1458	0.114832
1470	0.0499958
1482	0.0138317
1494	0.00590728
1506	0.00316976
1518	0.00244936
1530	0.00244936
1542	0.00331384
1554	0.00547504
1566	0.00763624
1578	0.00691584
1590	0.00518688
1602	0.00605136
1614	0.0103738
1626	0.0293923
1638	0.0714637
1650	0.0635393
1662	0.0158488
1674	0.00677176
1686	0.00734808
1698	0.0139758
1710	0.0103738
1722	0.00806848
1734	0.00778032
1746	0.00763624
1758	0.00590728
1770	0.00489872
1782	0.00461056
1794	0.0043224
1806	0.00561912
1818	0.0122468
1830	0.0185863
1842	0.0122468
1854	0.00475464
1866	0.00331384
1878	0.00316976
1890	0.00345792
1902	0.00316976
1914	0.00302568
1926	0.00273752
1938	0.00273752
1950	0.0028816
1962	0.003602
1974	0.00446648
1986	0.0043224
1998	0.00345792
2010	0.00302568
2022	0.0028816
2034	0.0028816
2046	0.00302568
2058	0.00302568
2070	0.00302568
2082	0.00331384
2094	0.00316976
2106	0.00331384
2118	0.00302568
2130	0.00316976
2142	0.00302568
2154	0.00331384
2166	0.00345792
2178	0.00403424
2190	0.00403424
2202	0.00374608
2214	0.00389016
2226	0.00417832
2238	0.00446648
2250	0.00374608
2262	0.00331384
2274	0.00331384
2286	0.00331384
2298	0.003602
2310	0.00345792
2322	0.00374608
2334	0.00446648
2346	0.0043224
2358	0.00489872
2370	0.003602
2382	0.003602
2394	0.00417832
2406	0.00389016
2418	0.003602
2430	0.00331384
2442	0.0028816
2454	0.00302568
2466	0.00302568
2478	0.00389016
2490	0.00389016
2502	0.00345792
2514	0.00374608
2526	0.0043224
2538	0.00403424
2550	0.0043224
2562	0.00475464
2574	0.0057632
2586	0.0064836
2598	0.00734808
2610	0.00763624
2622	0.0079244
2634	0.00850072
2646	0.0105178
2658	0.0154166
2670	0.0184422
2682	0.0154166
2694	0.0116705
2706	0.010806
2718	0.00965336
2730	0.00850072
2742	0.00763624
2754	0.00778032
2766	0.00878888
2778	0.012535
2790	0.0172896
2802	0.0208916
2814	0.021612
2826	0.0239173
2838	0.0573438
2850	0.233554
2862	0.468836
2874	0.344063
2886	0.148691
2898	0.157335
2910	0.329799
2922	0.720832
2934	1.4408
2946	1.07368
2958	0.272888
2970	0.0736249
2982	0.0814052
2994	0.0799644
3006	0.077371
3018	0.0502839
3030	0.0213238
3042	0.0188745
3054	0.0229087
3066	0.0352996
3078	0.0763624
3090	0.0985507
3102	0.048699
3114	0.0113823
3126	0.00806848
3138	0.007204
3150	0.00778032
3162	0.00763624
3174	0.00547504
3186	0.00403424
3198	0.00446648
3210	0.00489872
3222	0.00475464
3234	0.00461056
3246	0.00389016
3258	0.00417832
3270	0.0043224
3282	0.0043224
3294	0.00403424
3306	0.00389016
3318	0.00461056
3330	0.00475464
3342	0.00475464
3354	0.00446648
3366	0.00374608
3378	0.0043224
3390	0.0043224
3402	0.00403424
3414	0.0043224
3426	0.00518688
3438	0.00446648
3450	0.00475464
3462	0.00518688
3474	0.0050428
3486	0.00417832
3498	0.003602
3510	0.00374608
3522	0.003602
3534	0.00345792
3546	0.00302568
3558	0.00345792
3570	0.00345792
3582	0.00374608
3594	0.00374608
3606	0.0028816
3618	0.0043224
3630	0.0050428
3642	0.00590728
3654	0.00446648
3666	0.00461056
3678	0.00389016
3690	0.0050428
3702	0.00533096
3714	0.00518688
3726	0.00590728
3738	0.0050428
3750	0.00605136
3762	0.0057632
3774	0.00518688
3786	0.00561912
3798	0.00561912
3810	0.00605136
3822	0.00518688
3834	0.00417832
3846	0.0057632
3858	0.00547504
3870	0.00518688
3882	0.00518688
3894	0.00489872
3906	0.00475464
3918	0.00475464
3930	0.00533096
3942	0.0064836
3954	0.00633952
3966	0.00806848
