Infrared Spectrum: Aniline, p-isopropyl-N-methyl-,
Formula: C 10 H 15 N
CAS: 6950-79-4
Origin: Sadtler Research Labs Under US-EPA Contract
1/CM	ABSORBANCE
450	0.0515281
462	0.048424
474	0.0486309
486	0.056805
498	0.0481135
510	0.0560807
522	0.0727394
534	0.0882599
546	0.103573
558	0.0814309
570	0.0558738
582	0.0485274
594	0.0434574
606	0.0493552
618	0.0493552
630	0.0360076
642	0.0443886
654	0.0462511
666	0.0455268
678	0.0367318
690	0.02773
702	0.0218322
714	0.0190385
726	0.0221426
738	0.0305236
750	0.0290751
762	0.0179003
774	0.0160378
786	0.0230738
798	0.0515281
810	0.155826
822	0.235808
834	0.10078
846	0.0305236
858	0.0129337
870	0.00776025
882	0.00744984
894	0.00496656
906	0.00186246
918	0.00362145
930	0.00320757
942	0.00165552
954	0.00124164
966	0.00331104
978	0.0112782
990	0.00041388
1002	0.0020694
1014	0.0109678
1026	0.00848454
1038	0.0223495
1050	0.0652896
1062	0.0573224
1074	0.036318
1086	0.0339382
1098	0.0424227
1110	0.0562877
1122	0.0425262
1134	0.0463546
1146	0.073981
1158	0.0800858
1170	0.0498725
1182	0.139581
1194	0.139064
1206	0.0264883
1218	0.0286612
1230	0.0354902
1242	0.0796719
1254	0.273885
1266	0.228048
1278	0.140926
1290	0.243361
1302	0.221322
1314	0.297062
1326	0.160999
1338	0.0897085
1350	0.0851558
1362	0.0705665
1374	0.0624959
1386	0.0656
1398	0.0588744
1410	0.0521489
1422	0.0315583
1434	0.0465615
1446	0.0678763
1458	0.105539
1470	0.125406
1482	0.16876
1494	0.180141
1506	0.222771
1518	0.909191
1530	0.658069
1542	0.100883
1554	0.0439747
1566	0.0295924
1578	0.0405602
1590	0.0546322
1602	0.11899
1614	0.341761
1626	0.329552
1638	0.0899154
1650	0.0282473
1662	0.0159344
1674	0.0122095
1686	0.0124164
1698	0.0246259
1710	0.13896
1722	0.038077
1734	0.0153136
1746	0.0148997
1758	0.00786372
1770	0.00496656
1782	0.00507003
1794	0.00372492
1806	0.00589779
1818	0.00672555
1830	0.00641514
1842	0.00910536
1854	0.0158309
1866	0.0194524
1878	0.0139685
1890	0.00765678
1902	0.00641514
1914	0.00548391
1926	0.00569085
1938	0.00538044
1950	0.00496656
1962	0.00434574
1974	0.00424227
1986	0.00393186
1998	0.00227634
2010	0.00155205
2022	0.00062082
2034	0.00062082
2046	0.00041388
2058	0.00093123
2070	0.00393186
2082	0.00579432
2094	0.00558738
2106	0.00558738
2118	0.00641514
2130	0.00589779
2142	0.00444921
2154	0.00372492
2166	0.00279369
2178	0.00258675
2190	0.00269022
2202	0.00227634
2214	0.00279369
2226	0.00258675
2238	0.00227634
2250	0.00258675
2262	0.00320757
2274	0.00300063
2286	0.00341451
2298	0.00641514
2310	0.00869148
2322	0.0133476
2334	0.00962271
2346	0.00196593
2358	0.0113817
2370	0.00010347
2382	0.00010347
2394	0.00031041
2406	0.00196593
2418	0.00175899
2430	0.0010347
2442	0.0010347
2454	0.00093123
2466	0.00134511
2478	0.00093123
2490	0.00041388
2502	0.00041388
2514	0.00051735
2526	0.0020694
2538	0.00289716
2550	0.00496656
2562	0.00662208
2574	0.00848454
2586	0.00796719
2598	0.00734637
2610	0.00465615
2622	0.00434574
2634	0.00444921
2646	0.0041388
2658	0.00496656
2670	0.00900189
2682	0.00972618
2694	0.00641514
2706	0.00610473
2718	0.00993312
2730	0.0135546
2742	0.0135546
2754	0.0142789
2766	0.0176934
2778	0.0216252
2790	0.0284543
2802	0.0465615
2814	0.0992277
2826	0.134511
2838	0.089605
2850	0.0797754
2862	0.105229
2874	0.211389
2886	0.293751
2898	0.297373
2910	0.288267
2922	0.265607
2934	0.30296
2946	0.334105
2958	0.489517
2970	0.838935
2982	0.389151
2994	0.180141
3006	0.11123
3018	0.170208
3030	0.156033
3042	0.0975722
3054	0.111748
3066	0.0939508
3078	0.0670486
3090	0.0415949
3102	0.0352833
3114	0.0281438
3126	0.0198662
3138	0.0145893
3150	0.0124164
3162	0.00993312
3174	0.0093123
3186	0.00910536
3198	0.0082776
3210	0.0072429
3222	0.00569085
3234	0.00475962
3246	0.00320757
3258	0.00144858
3270	0.00269022
3282	0.00341451
3294	0.00217287
3306	0.00196593
3318	0.00093123
3330	0.00155205
3342	0.00134511
3354	0.00186246
3366	0.00186246
3378	0.00217287
3390	0.00362145
3402	0.00538044
3414	0.00693249
3426	0.0101401
3438	0.0274196
3450	0.0508038
3462	0.0366284
3474	0.0157274
3486	0.0101401
3498	0.00662208
3510	0.0051735
3522	0.00289716
3534	0.00331104
3546	0.00237981
3558	0.00300063
3570	0.00237981
3582	0.00496656
3594	0.00434574
3606	0.00362145
3618	0.00444921
3630	0.0041388
3642	0.00351798
3654	0.00279369
3666	0.00641514
3678	0.00434574
3690	0.0041388
3702	0.00217287
3714	0.00196593
3726	0.00196593
3738	0.00248328
3750	0.00165552
3762	0.00300063
3774	0.00258675
3786	0.00351798
3798	0.00279369
3810	0.0031041
3822	0.00393186
3834	0.00279369
3846	0.00362145
3858	0.00124164
3870	0.00372492
3882	0.00237981
3894	0.00362145
3906	0.0010347
3918	0.0031041
3930	0.00631167
3942	0.00289716
3954	0.00858801
3966	0.00248328
