Infrared Spectrum: 1-(2-Bromoethoxy)-2,4-dichlorobenzene
Formula: C 8 H 7 Br Cl 2 O
CAS: 6954-77-4
Origin: Sadtler Research Labs Under US-EPA Contract
1/CM	ABSORBANCE
450	0.0082559
462	0.00535104
474	0.00596259
486	0.00504527
498	0.00259908
510	0.0131483
522	0.0160531
534	0.0100905
546	0.0149829
558	0.0634481
570	0.0863812
582	0.055498
594	0.0250735
606	0.00856167
618	0.0201811
630	0.0308832
642	0.0897447
654	0.112066
666	0.0694107
678	0.0813359
690	0.0524402
702	0.0955544
714	0.11543
726	0.151511
738	0.166188
750	0.166494
762	0.135764
774	0.0686463
786	0.0817945
798	0.198447
810	0.289874
822	0.193555
834	0.115888
846	0.101976
858	0.0914264
870	0.207162
882	0.0669645
894	0.0220157
906	0.0183464
918	0.0201811
930	0.0285899
942	0.0386804
954	0.0429612
966	0.0518287
978	0.0694107
990	0.165882
1002	0.381453
1014	0.377478
1026	0.194014
1038	0.102129
1050	0.158391
1062	0.469363
1074	0.348888
1086	0.161754
1098	0.376866
1110	0.497953
1122	0.155792
1134	0.0970832
1146	0.0805714
1158	0.0625308
1170	0.0665058
1182	0.0880629
1194	0.105798
1206	0.184076
1218	0.428542
1230	0.393225
1242	0.607267
1254	0.922979
1266	0.710466
1278	0.536328
1290	0.499788
1302	0.269998
1314	0.0929553
1326	0.0408208
1338	0.0373044
1350	0.0417382
1362	0.0718569
1374	0.164048
1386	0.206703
1398	0.0957073
1410	0.0584028
1422	0.135611
1434	0.23193
1446	0.241409
1458	0.424261
1470	0.827119
1482	1.52887
1494	0.620874
1506	0.19967
1518	0.0662001
1530	0.0318005
1542	0.0266023
1554	0.0276725
1566	0.070328
1578	0.114512
1590	0.100753
1602	0.0331765
1614	0.0100905
1626	0.00886745
1638	0.00810301
1650	0.00963188
1662	0.00321063
1674	0.00580971
1686	0.00764435
1698	0.0102434
1710	0.00795012
1722	0.0140656
1734	0.0292014
1746	0.0238504
1758	0.0100905
1770	0.00749146
1782	0.00412795
1794	0.00519816
1806	0.0035164
1818	0.00168176
1830	0.00519816
1842	0.0100905
1854	0.0100905
1866	0.00993766
1878	0.00917322
1890	0.0070328
1902	0.00382217
1914	0.0035164
1926	0.00336351
1938	0.00336351
1950	0.00397506
1962	0.00397506
1974	0.00443372
1986	0.00535104
1998	0.00642125
2010	0.00596259
2022	0.00596259
2034	0.00489238
2046	0.00382217
2058	0.00305774
2070	0.00321063
2082	0.00366929
2094	0.0035164
2106	0.00275197
2118	0.00305774
2130	0.00305774
2142	0.00183464
2154	0.000764435
2166	0.000917322
2178	0.00107021
2190	0.00107021
2202	0.00183464
2214	0.00198753
2226	0.00198753
2238	0.00168176
2250	0.000611548
2262	0.000764435
2274	0.0012231
2286	0.00183464
2298	0.00366929
2310	0.0047395
2322	0.0047395
2334	0.00336351
2346	0.00183464
2358	0.00198753
2370	0.000764435
2382	0.000611548
2394	0
2406	0
2418	0.000764435
2430	0.00137598
2442	0.00244619
2454	0.00290485
2466	0.00366929
2478	0.00382217
2490	0.00504527
2502	0.0070328
2514	0.00978477
2526	0.0114665
2538	0.0113136
2550	0.00733858
2562	0.0035164
2574	0.00152887
2586	0.000764435
2598	0.000458661
2610	0.000917322
2622	0.00107021
2634	0.00168176
2646	0.00259908
2658	0.00366929
2670	0.00412795
2682	0.00305774
2694	0.00275197
2706	0.00321063
2718	0.00443372
2730	0.00733858
2742	0.00886745
2754	0.0070328
2766	0.00519816
2778	0.00504527
2790	0.00642125
2802	0.00963188
2814	0.0140656
2826	0.0155945
2838	0.017582
2850	0.0238504
2862	0.0373044
2874	0.0570269
2886	0.0562624
2898	0.0558038
2910	0.0470892
2922	0.056874
2934	0.0639068
2946	0.0752204
2958	0.0686463
2970	0.0824061
2982	0.0845465
2994	0.059473
3006	0.022933
3018	0.0235446
3030	0.0279783
3042	0.0224744
3054	0.0154416
3066	0.0207926
3078	0.0345525
3090	0.0218628
3102	0.012231
3114	0.00687991
3126	0.00443372
3138	0.00397506
3150	0.00443372
3162	0.00259908
3174	0.00244619
3186	0.00198753
3198	0.00137598
3210	0.000917322
3222	0.0012231
3234	0.00137598
3246	0.000917322
3258	0.00107021
3270	0.0012231
3282	0.000764435
3294	0.00107021
3306	0.000764435
3318	0.000917322
3330	0.000152887
3342	0.000764435
3354	0.000611548
3366	0.000611548
3378	0.000611548
3390	0.000305774
3402	0.000917322
3414	0.000764435
3426	0.000305774
3438	0.000305774
3450	0.000917322
3462	0.000458661
3474	0.000764435
3486	0.000152887
3498	0.000458661
3510	0.00107021
3522	0.000611548
3534	0.000917322
3546	0.00168176
3558	0.000917322
3570	0.000305774
3582	0.00152887
3594	0.00152887
3606	0.00183464
3618	0.00244619
3630	0.00244619
3642	0.00259908
3654	0.00183464
3666	0.00198753
3678	0.000458661
3690	0.00198753
3702	0.000917322
3714	0.00152887
3726	0.00198753
3738	0.00137598
3750	0.00183464
3762	0.00152887
3774	0.00244619
3786	0.00137598
3798	0.00198753
3810	0.000458661
3822	0.000458661
3834	0.000764435
3846	0.00137598
3858	0.00107021
3870	0.00244619
3882	0.00183464
3894	0.00244619
3906	0.00244619
3918	0.00366929
3930	0.00244619
3942	0.00382217
3954	0.00305774
3966	0.00259908
