Infrared Spectrum: 3-Hexanone, 4-(3,4,5-trimethoxyphenyl)-,
Formula: C 15 H 22 O 4
CAS: 6955-40-4
Origin: Sadtler Research Labs Under US-EPA Contract
1/CM	ABSORBANCE
450	0.0327215
462	0.00918737
474	0.015433
486	0.0111335
498	0.0059288
510	0.0100925
522	0.0103641
534	0.00724128
546	0.00715076
558	0.00660767
570	0.00755809
582	0.00271548
594	0.00162929
606	0.00429951
618	0.00782963
630	0.00941366
642	0.0130343
654	0.0197777
666	0.0203208
678	0.0181032
690	0.0130343
702	0.0076486
714	0.0059288
726	0.0113145
738	0.016836
750	0.0144826
762	0.0214976
774	0.0404154
786	0.0297798
798	0.019823
810	0.0249824
822	0.0348939
834	0.0446244
846	0.0365232
858	0.02806
870	0.0232626
882	0.0176959
894	0.0178317
906	0.0150257
918	0.0201851
930	0.0302776
942	0.0277432
954	0.0389219
966	0.046661
978	0.0481998
990	0.0567535
1002	0.0951323
1014	0.223665
1026	0.16234
1038	0.138489
1050	0.11147
1062	0.081917
1074	0.115363
1086	0.193749
1098	0.29644
1110	0.404471
1122	0.45258
1134	0.392432
1146	0.257971
1158	0.145052
1170	0.103233
1182	0.108438
1194	0.101876
1206	0.096128
1218	0.152836
1230	0.255889
1242	0.349799
1254	0.236971
1266	0.131474
1278	0.0959017
1290	0.0895656
1302	0.116268
1314	0.172342
1326	0.29128
1338	0.25521
1350	0.134914
1362	0.0743136
1374	0.060872
1386	0.0735443
1398	0.0784321
1410	0.185513
1422	0.283406
1434	0.207417
1446	0.137811
1458	0.235523
1470	0.24815
1482	0.226018
1494	0.357448
1506	0.294494
1518	0.113598
1530	0.0548074
1542	0.0602384
1554	0.0662577
1566	0.119119
1578	0.261636
1590	0.239415
1602	0.135367
1614	0.0603742
1626	0.0317711
1638	0.0276979
1650	0.0251634
1662	0.0211807
1674	0.0209092
1686	0.0399176
1698	0.0584281
1710	0.120432
1722	0.282636
1734	0.133602
1746	0.0446696
1758	0.0252992
1770	0.0144826
1782	0.00868954
1794	0.0059288
1806	0.00570251
1818	0.00524993
1830	0.00271548
1842	0.00267022
1854	0.00393745
1866	0.00384693
1878	0.00235342
1890	0.00420899
1902	0.00303229
1914	0.00375641
1926	0.00316806
1938	0.00384693
1950	0.00615509
1962	0.00805592
1974	0.00882531
1986	0.00701499
1998	0.00801067
2010	0.00923263
2022	0.0103641
2034	0.00814644
2046	0.00606457
2058	0.00547622
2070	0.00629086
2082	0.00457106
2094	0.0039827
2106	0.00393745
2118	0.00457106
2130	0.00380167
2142	0.00407322
2154	0.00479735
2166	0.00502364
2178	0.00448054
2190	0.00502364
2202	0.00434477
2214	0.00353012
2226	0.00520467
2238	0.00642664
2250	0.00588354
2262	0.00470683
2274	0.00380167
2286	0.00362064
2298	0.00153877
2310	4.5258e-05
2322	0.00167455
2334	0.00285125
2346	0.00294177
2358	0.00470683
2370	0.00570251
2382	0.00298703
2394	0.00217238
2406	0.00416374
2418	0.00393745
2430	0.00371116
2442	0.00443528
2454	0.00488786
2466	0.00375641
2478	0.00529519
2490	0.00543096
2502	0.00470683
2514	0.00353012
2526	0.00384693
2538	0.00420899
2550	0.00615509
2562	0.00606457
2574	0.00706025
2586	0.00669818
2598	0.0073318
2610	0.00687922
2622	0.00692447
2634	0.00665293
2646	0.00742231
2658	0.00724128
2670	0.00633612
2682	0.00660767
2694	0.00782963
2706	0.00868954
2718	0.00950418
2730	0.0110882
2742	0.0115408
2754	0.0117218
2766	0.0123102
2778	0.0143015
2790	0.0181937
2802	0.0228553
2814	0.0343508
2826	0.0587449
2838	0.134914
2850	0.117626
2862	0.0883436
2874	0.115996
2886	0.170939
2898	0.162521
2910	0.157905
2922	0.181304
2934	0.25788
2946	0.395962
2958	0.292095
2970	0.314362
2982	0.268335
2994	0.196827
3006	0.194157
3018	0.100609
3030	0.0571156
3042	0.0458916
3054	0.0423162
3066	0.0381978
3078	0.0331289
3090	0.0268833
3102	0.0215881
3114	0.0168812
3126	0.0135774
3138	0.0117218
3150	0.00995676
3162	0.00769386
3174	0.00706025
3186	0.00728654
3198	0.0062456
3210	0.00543096
3222	0.00407322
3234	0.00488786
3246	0.00547622
3258	0.00520467
3270	0.00574777
3282	0.0050689
3294	0.00570251
3306	0.0059288
3318	0.0059288
3330	0.0062456
3342	0.00638138
3354	0.00629086
3366	0.00755809
3378	0.00746757
3390	0.00751283
3402	0.00778438
3414	0.00882531
3426	0.0108619
3438	0.00810118
3450	0.00660767
3462	0.00660767
3474	0.00556673
3486	0.00561199
3498	0.00543096
3510	0.00629086
3522	0.00497838
3534	0.00524993
3546	0.0050689
3558	0.00534044
3570	0.00393745
3582	0.00615509
3594	0.00339435
3606	0.00289651
3618	0.00638138
3630	0.0022629
3642	0.00267022
3654	0.00425425
3666	0.00221764
3678	0.00769386
3690	0.00520467
3702	0.00457106
3714	0.00393745
3726	0.00257971
3738	0.00583828
3750	0.00402796
3762	0.00339435
3774	0.00362064
3786	0.00321332
3798	0.00524993
3810	0.00502364
3822	0.0102283
3834	0.00484261
3846	0.00515941
3858	0.00823696
3870	0.00665293
3882	0.00597406
3894	0.00977573
3906	0.00497838
3918	0.00461632
3930	0.00918737
3942	0.00715076
3954	0.0112692
3966	0.00995676
