Infrared Spectrum: 3-Hexanone, 4-(p-tolyl)-,
Formula: C 13 H 18 O
CAS: 6957-06-8
Origin: Sadtler Research Labs Under US-EPA Contract
1/CM	ABSORBANCE
450	0.0268649
462	0.02019
474	0.00921239
486	0.000661968
498	0.0237205
510	0.00943304
522	0.0297886
534	0.0835735
546	0.0645419
558	0.0249893
570	0.0117499
582	0.0183144
594	0.0139565
606	0.00926755
618	0.00844009
630	0.0138462
642	0.0114741
654	0.0116396
666	0.0090469
678	0.0134049
690	0.00595771
702	0.00970886
714	0.0199142
726	0.0328777
738	0.0242722
750	0.0279681
762	0.0294576
774	0.0362427
786	0.0565983
798	0.118603
810	0.16996
822	0.0643764
834	0.0311125
846	0.0246583
858	0.0287956
870	0.030285
882	0.0171008
894	0.0286301
906	0.0404904
918	0.0316641
930	0.0217898
942	0.0154459
954	0.0237205
966	0.0333191
978	0.0476065
990	0.0512474
1002	0.03867
1014	0.0770641
1026	0.0944959
1038	0.0431382
1050	0.0370702
1062	0.0390561
1074	0.0461171
1086	0.0703893
1098	0.0844561
1110	0.0974196
1122	0.109004
1134	0.122133
1146	0.0880417
1158	0.0738094
1170	0.054833
1182	0.0487098
1194	0.0428624
1206	0.0344223
1218	0.0387251
1230	0.0378977
1242	0.0377322
1254	0.0390009
1266	0.0505302
1278	0.0401042
1290	0.0405455
1302	0.0414282
1314	0.0517438
1326	0.0660313
1338	0.107349
1350	0.1159
1362	0.0741956
1374	0.0632179
1386	0.0864972
1398	0.0500337
1410	0.0538401
1422	0.0716029
1434	0.0616182
1446	0.0683482
1458	0.117224
1470	0.120919
1482	0.061232
1494	0.0519645
1506	0.124229
1518	0.177628
1530	0.0398836
1542	0.0199694
1554	0.0156114
1566	0.0141771
1578	0.0156666
1590	0.0151701
1602	0.0168802
1614	0.0163837
1626	0.0188661
1638	0.0184799
1650	0.0167699
1662	0.019859
1674	0.0257064
1686	0.0469997
1698	0.0819185
1710	0.194288
1722	0.519921
1734	0.35487
1746	0.0641006
1758	0.0292369
1770	0.0209072
1782	0.0183144
1794	0.0198039
1806	0.00981919
1818	0.00606804
1830	0.00457861
1842	0.00468894
1854	0.00424763
1866	0.00457861
1878	0.00761263
1890	0.0127429
1902	0.0151701
1914	0.00606804
1926	0.00419246
1938	0.00270304
1950	0.00264787
1962	0.00248238
1974	0.00121361
1986	0.00154459
1998	0.00171008
2010	0.000606804
2022	0.000606804
2034	0.00055164
2046	0.000992952
2058	0.000717132
2070	0.000772296
2082	0.000496476
2094	0.000717132
2106	0.000606804
2118	0.000661968
2130	0.000165492
2142	5.5164e-05
2154	0.00082746
2166	0.000330984
2178	0.000606804
2190	0.00082746
2202	0.000606804
2214	5.5164e-05
2226	0.000386148
2238	0.00055164
2250	0.000717132
2262	0.00027582
2274	0.000717132
2286	0.00171008
2298	0.00231689
2310	0.00209623
2322	0.000606804
2334	0
2346	0
2358	0.000110328
2370	0.00027582
2382	0.00143426
2394	0.0021514
2406	0.00270304
2418	0.00286853
2430	0.00209623
2442	0.00231689
2454	0.00182041
2466	0.0021514
2478	0.00220656
2490	0.00165492
2502	0.00143426
2514	0.00115844
2526	0.00148943
2538	0.00143426
2550	0.00176525
2562	0.00182041
2574	0.0019859
2586	0.00325468
2598	0.00380632
2610	0.00286853
2622	0.00259271
2634	0.00242722
2646	0.00231689
2658	0.00319951
2670	0.00314435
2682	0.00325468
2694	0.00380632
2706	0.0041373
2718	0.00524058
2730	0.00761263
2742	0.0148943
2754	0.0132945
2766	0.00871591
2778	0.00948821
2790	0.0121912
2802	0.0156114
2814	0.0197487
2826	0.0247135
2838	0.0319951
2850	0.0462274
2862	0.0808153
2874	0.164554
2886	0.274055
2898	0.222973
2910	0.197597
2922	0.23886
2934	0.358787
2946	0.379694
2958	0.295734
2970	0.419633
2982	0.410586
2994	0.231523
3006	0.147895
3018	0.159976
3030	0.19015
3042	0.106411
3054	0.107459
3066	0.0766228
3078	0.05213
3090	0.0462826
3102	0.0337604
3114	0.021514
3126	0.0184248
3138	0.0161079
3150	0.010426
3162	0.00706099
3174	0.00595771
3186	0.00529574
3198	0.00397181
3210	0.00358566
3222	0.00386148
3234	0.00264787
3246	0.00209623
3258	0.00154459
3270	0.00121361
3282	0.000937788
3294	0.00165492
3306	0.00264787
3318	0.00171008
3330	0.00231689
3342	0.00182041
3354	0.00182041
3366	0.00231689
3378	0.0035305
3390	0.00342017
3402	0.00380632
3414	0.00645419
3426	0.00855042
3438	0.00981919
3450	0.00452345
3462	0.00325468
3474	0.00220656
3486	0.0019859
3498	0.00220656
3510	0.00237205
3522	0.00220656
3534	0.00380632
3546	0.00242722
3558	0.00159976
3570	0.00270304
3582	0.00110328
3594	0.00358566
3606	0.00286853
3618	0.00270304
3630	0.00319951
3642	0.00375115
3654	0.00485443
3666	0.00485443
3678	0.000496476
3690	0.00391664
3702	0.0013791
3714	0.00281336
3726	0.0019859
3738	0.00303402
3750	0.00380632
3762	0.000661968
3774	0.00303402
3786	0.00193074
3798	0.00248238
3810	0.000882624
3822	0.00286853
3834	0.00154459
3846	0.00358566
3858	0.00292369
3870	0.00397181
3882	0.000882624
3894	0.00143426
3906	0.00148943
3918	0.00143426
3930	0.000717132
3942	0.00325468
3954	0.00121361
3966	0.00292369
