Infrared Spectrum: Cyclohexanol, 1-(2-methylphenyl)-
Formula: C 13 H 18 O
CAS: 6957-09-1
Origin: Sadtler Research Labs Under US-EPA Contract
1/CM	ABSORBANCE
450	0.0562102
462	0.0373892
474	0.0154104
486	0.0185683
498	0.0188209
510	0.00808416
522	0.0176841
534	0.0175578
546	0.0178104
558	0.0318314
570	0.018442
582	0.00997888
594	0.00530523
606	0.00113684
618	0.00770521
630	0.0156631
642	0.0395366
654	0.0135157
666	0.011242
678	0.0128841
690	0.0113683
702	0.018442
714	0.0589891
726	0.147662
738	0.132757
750	0.300756
762	0.16421
774	0.032084
786	0.0195788
798	0.0117473
810	0.0108631
822	0.0198315
834	0.0359998
846	0.0514102
858	0.0450945
870	0.0123789
882	0.0119999
894	0.0343577
906	0.054947
918	0.0373892
930	0.0414313
942	0.0467366
954	0.106989
966	0.190104
978	0.111915
990	0.0443366
1002	0.0444629
1014	0.0834942
1026	0.07781
1038	0.08501
1050	0.091831
1062	0.0755364
1074	0.0517891
1086	0.0372629
1098	0.0493892
1110	0.0712417
1122	0.0899363
1134	0.0954941
1146	0.0843784
1158	0.0736416
1170	0.0680838
1182	0.0601259
1194	0.0579786
1206	0.0599996
1218	0.0472418
1230	0.0463576
1242	0.054947
1254	0.0809679
1266	0.0790732
1278	0.08021
1290	0.0867784
1302	0.0869047
1314	0.0679575
1326	0.0622733
1338	0.0755364
1350	0.093852
1362	0.0752837
1374	0.0557049
1386	0.057726
1398	0.0397892
1410	0.0327156
1422	0.0421892
1434	0.0735153
1446	0.146652
1458	0.169767
1470	0.126315
1482	0.111284
1494	0.0833679
1506	0.0343577
1518	0.0166736
1530	0.00884205
1542	0.00694732
1554	0.00126315
1566	0.00694732
1578	0.0109894
1590	0.0122526
1602	0.0255156
1614	0.0156631
1626	0.00454734
1638	0.00101052
1650	0.00454734
1662	0.00328419
1674	0.00618944
1686	0.0145262
1698	0.027663
1710	0.0183157
1722	0.0161683
1734	0.0162946
1746	0.0179367
1758	0.0174315
1770	0.0298103
1782	0.0358735
1794	0.0334735
1806	0.020842
1818	0.0109894
1830	0.00947362
1842	0.00290524
1854	0.000126315
1866	0.00265262
1878	0.0041684
1890	0.00454734
1902	0.0108631
1914	0.0103578
1926	0.00732627
1938	0.0117473
1950	0.00719996
1962	0.00227367
1974	0.00138946
1986	0.00113684
1998	0.00138946
2010	0.00138946
2022	0.00025263
2034	0.00050526
2046	0.00151578
2058	0.00101052
2070	0.00101052
2082	0.00126315
2094	0.00151578
2106	0.00151578
2118	0.00126315
2130	0.00113684
2142	0.000884205
2154	0.00151578
2166	0.00202104
2178	0.00189472
2190	0.00214736
2202	0.00202104
2214	0.00214736
2226	0.0025263
2238	0.0025263
2250	0.0025263
2262	0.0025263
2274	0.00290524
2286	0.0025263
2298	0.00202104
2310	0.0016421
2322	0.00227367
2334	0.00315788
2346	0.00328419
2358	0.00126315
2370	0.00391576
2382	0.00265262
2394	0.00101052
2406	0.00189472
2418	0.00239998
2430	0.00214736
2442	0.00138946
2454	0.000631575
2466	0.0016421
2478	0.00214736
2490	0.00265262
2502	0.0025263
2514	0.00214736
2526	0.00189472
2538	0.00126315
2550	0.00189472
2562	0.0025263
2574	0.00315788
2586	0.0041684
2598	0.00479997
2610	0.00581049
2622	0.00606312
2634	0.00631575
2646	0.00770521
2658	0.0114947
2670	0.0145262
2682	0.0121262
2694	0.00884205
2706	0.00884205
2718	0.00871574
2730	0.00858942
2742	0.0111157
2754	0.0114947
2766	0.0118736
2778	0.0146525
2790	0.0186946
2802	0.0224841
2814	0.0267788
2826	0.0354945
2838	0.0631575
2850	0.154104
2862	0.345977
2874	0.349008
2886	0.231788
2898	0.209936
2910	0.271451
2922	0.482271
2934	0.99031
2946	1.19545
2958	0.524839
2970	0.239999
2982	0.155746
2994	0.108378
3006	0.0956205
3018	0.140083
3030	0.152462
3042	0.0980204
3054	0.116715
3066	0.202357
3078	0.138694
3090	0.0569681
3102	0.0503997
3114	0.0400419
3126	0.0195788
3138	0.0162946
3150	0.0141473
3162	0.00833679
3174	0.00656838
3186	0.00568417
3198	0.00479997
3210	0.0034105
3222	0.00277893
3234	0.00315788
3246	0.00239998
3258	0.00265262
3270	0.0025263
3282	0.0025263
3294	0.00176841
3306	0.00189472
3318	0.00214736
3330	0.00265262
3342	0.0016421
3354	0.00290524
3366	0.00366314
3378	0.00391576
3390	0.0034105
3402	0.00353682
3414	0.00315788
3426	0.00442103
3438	0.00366314
3450	0.00454734
3462	0.00378945
3474	0.00404208
3486	0.00227367
3498	0.00113684
3510	0.00277893
3522	0.00189472
3534	0.00328419
3546	0.00290524
3558	0.0050526
3570	0.0107368
3582	0.0117473
3594	0.00454734
3606	0.0050526
3618	0.018063
3630	0.0482523
3642	0.0396629
3654	0.0203367
3666	0.00783153
3678	0.00555786
3690	0.00303156
3702	0.00315788
3714	0.0025263
3726	0.00290524
3738	0.00303156
3750	0.000631575
3762	0.00277893
3774	0.0016421
3786	0.00202104
3798	0.000884205
3810	0.0059368
3822	0.00391576
3834	0.00454734
3846	0.00239998
3858	0.00833679
3870	0.00568417
3882	0.00391576
3894	0.0059368
3906	0.0041684
3918	0.00745259
3930	0.00404208
3942	0.00391576
3954	0.00694732
3966	0.0016421
