Infrared Spectrum: Benzenamine, N,3-dimethyl-
Formula: C 8 H 11 N
CAS: 696-44-6
Origin: Sadtler Research Labs Under US-EPA Contract
1/CM	ABSORBANCE
450	0.0251124
462	0.039184
474	0.0454621
486	0.0676519
498	0.0612655
510	0.0631057
522	0.0717651
534	0.0685178
546	0.0532556
558	0.0409159
570	0.0286844
582	0.0245712
594	0.0397252
606	0.0411323
618	0.0510907
630	0.0544462
642	0.0560699
654	0.0562864
666	0.061915
678	0.128268
690	0.257077
702	0.149592
714	0.0677601
726	0.0435137
738	0.0470857
750	0.120583
762	0.280025
774	0.267685
786	0.107161
798	0.027169
810	0.0169942
822	0.023597
834	0.0592089
846	0.0914653
858	0.0684096
870	0.0365861
882	0.023597
894	0.0359367
906	0.0478434
918	0.0335553
930	0.00692755
942	0.000865944
954	0.0022731
966	0.00562864
978	0.0156952
990	0.0450291
1002	0.0394005
1014	0.00660282
1026	0.00346378
1038	0.0119067
1050	0.0279267
1062	0.0518484
1074	0.0649458
1086	0.0641881
1098	0.0545545
1110	0.0306328
1122	0.0253289
1134	0.0360449
1146	0.0783679
1158	0.134005
1170	0.217677
1182	0.249392
1194	0.101748
1206	0.0308493
1218	0.0162364
1230	0.0137469
1242	0.034746
1254	0.109001
1266	0.192131
1278	0.157494
1290	0.164205
1302	0.297885
1314	0.397468
1326	0.342156
1338	0.130108
1350	0.0500083
1362	0.0309575
1374	0.0377768
1386	0.0589924
1398	0.0721981
1410	0.11766
1422	0.145695
1434	0.106619
1446	0.0977434
1458	0.104563
1470	0.180116
1482	0.355362
1494	0.537751
1506	0.634629
1518	0.566436
1530	0.302431
1542	0.154246
1554	0.0942797
1566	0.0963363
1578	0.201007
1590	0.514695
1602	0.935436
1614	0.937817
1626	0.466744
1638	0.166045
1650	0.0597501
1662	0.0356119
1674	0.0219733
1686	0.020025
1698	0.0237052
1710	0.0384263
1722	0.0221898
1734	0.00671107
1746	0.00270608
1758	0.00281432
1770	0.0022731
1782	0.00487093
1794	0.00757701
1806	0.0156952
1818	0.0139633
1830	0.00519566
1842	0.00346378
1854	0.00378851
1866	0.00205662
1878	0.00519566
1890	0.00909241
1902	0.0224063
1914	0.0197002
1926	0.00541215
1938	0.0022731
1950	0.0015154
1962	0.00184013
1974	0.0022731
1986	0.00238135
1998	0.00205662
2010	0.00216486
2022	0.00162364
2034	0.00238135
2046	0.00270608
2058	0.00313905
2070	0.00281432
2082	0.00238135
2094	0.00162364
2106	0.00194837
2118	0.00205662
2130	0.00248959
2142	0.00248959
2154	0.0022731
2166	0.00238135
2178	0.00194837
2190	0.00108243
2202	0.00162364
2214	0.00335553
2226	0.00335553
2238	0.0022731
2250	0.00205662
2262	0.000324729
2274	0
2286	0.000432972
2298	0.000432972
2310	0.000865944
2322	0.00216486
2334	0.00335553
2346	0.00411323
2358	0.00205662
2370	0.000757701
2382	0.00216486
2394	0.00259783
2406	0.00378851
2418	0.00443796
2430	0.00313905
2442	0.00281432
2454	0.00281432
2466	0.0030308
2478	0.00465445
2490	0.00541215
2502	0.00476269
2514	0.00443796
2526	0.00389675
2538	0.00378851
2550	0.00519566
2562	0.00811822
2574	0.00941714
2586	0.011149
2598	0.0102831
2610	0.00638634
2622	0.00508742
2634	0.00541215
2646	0.00552039
2658	0.00573688
2670	0.00660282
2682	0.00746877
2694	0.00736052
2706	0.00865944
2718	0.0114738
2730	0.0163447
2742	0.023164
2754	0.023597
2766	0.0246794
2778	0.0294421
2790	0.0411323
2802	0.0712239
2814	0.140932
2826	0.188559
2838	0.144721
2850	0.116794
2862	0.148076
2874	0.204363
2886	0.248309
2898	0.29756
2910	0.336203
2922	0.37885
2934	0.378418
2946	0.308168
2958	0.234563
2970	0.211832
2982	0.268118
2994	0.246361
3006	0.182714
3018	0.207935
3030	0.223738
3042	0.259783
3054	0.296261
3066	0.202956
3078	0.127402
3090	0.0925478
3102	0.0588842
3114	0.0363696
3126	0.0225145
3138	0.0136386
3150	0.0077935
3162	0.00454621
3174	0.00335553
3186	0.0022731
3198	0.0022731
3210	0.00173189
3222	0.00216486
3234	0.0022731
3246	0.000216486
3258	0.000216486
3270	0.00162364
3282	0.000865944
3294	0.000974187
3306	0.00173189
3318	0.00162364
3330	0.00184013
3342	0.0015154
3354	0.00162364
3366	0.00173189
3378	0.00129892
3390	0.00238135
3402	0.00313905
3414	0.00671107
3426	0.0136386
3438	0.0335553
3450	0.0702497
3462	0.0737135
3474	0.0350707
3486	0.0128809
3498	0.00736052
3510	0.00519566
3522	0.00335553
3534	0.00389675
3546	0.00346378
3558	0.00270608
3570	0.00270608
3582	0.00292256
3594	0.0022731
3606	0.00162364
3618	0.00119067
3630	0.0015154
3642	0.0015154
3654	0.00173189
3666	0.000865944
3678	0.00162364
3690	0.000541215
3702	0.000757701
3714	0.00173189
3726	0.00162364
3738	0.00173189
3750	0.00335553
3762	0.00173189
3774	0.0022731
3786	0.00194837
3798	0.00108243
3810	0.00205662
3822	0.00238135
3834	0.00281432
3846	0.00281432
3858	0.00432972
3870	0.00270608
3882	0.00411323
3894	0.00411323
3906	0.00443796
3918	0.00378851
3930	0.00292256
3942	0.00346378
3954	0.00378851
3966	0.00357202
