Infrared Spectrum: 4-Isopropylpyridine
Formula: C 8 H 11 N
CAS: 696-30-0
Origin: Sadtler Research Labs Under US-EPA Contract
1/CM	ABSORBANCE
450	0.0503735
462	0.0286904
474	0.00330535
486	0.0199643
498	0.0141469
510	0.0264428
522	0.0530178
534	0.0676936
546	0.135916
558	0.197263
570	0.168573
582	0.105639
594	0.0536789
606	0.028426
618	0.0183777
630	0.0138825
642	0.0156013
654	0.0120315
666	0.0144113
678	0.0149402
690	0.0142791
702	0.0124281
714	0.0122959
726	0.0257817
738	0.0917565
750	0.147551
762	0.0601574
774	0.0278972
786	0.0390031
798	0.108019
810	0.285582
822	0.312686
834	0.121505
846	0.0343756
858	0.0181133
870	0.0239307
882	0.045085
894	0.0567198
906	0.0244596
918	0.0162623
930	0.0190388
942	0.0161301
954	0.0116348
966	0.0103127
978	0.0199643
990	0.103391
1002	0.0950619
1014	0.0105771
1026	0.0107093
1038	0.0159979
1050	0.0600252
1062	0.079064
1074	0.0509024
1086	0.0282938
1098	0.0219475
1110	0.022873
1122	0.0251207
1134	0.0249884
1146	0.0194355
1158	0.0167912
1170	0.0159979
1182	0.0149402
1194	0.016659
1206	0.026575
1218	0.0762875
1230	0.0896411
1242	0.0468038
1254	0.0196999
1266	0.01732
1278	0.0161301
1290	0.028426
1302	0.098235
1314	0.1063
1326	0.0343756
1338	0.0269717
1350	0.0535467
1362	0.0950619
1374	0.0996894
1386	0.112911
1398	0.167383
1410	0.250413
1422	0.22635
1434	0.114101
1446	0.0823693
1458	0.12838
1470	0.153633
1482	0.126397
1494	0.0941364
1506	0.0490514
1518	0.0293515
1530	0.0345079
1542	0.0696768
1554	0.134726
1566	0.167912
1578	0.16659
1590	0.613605
1602	0.798176
1614	0.185364
1626	0.0482581
1638	0.0397964
1650	0.0260462
1662	0.0263106
1674	0.0327891
1686	0.0278972
1698	0.0169234
1710	0.0137503
1722	0.0159979
1734	0.0152046
1746	0.0116348
1758	0.0124281
1770	0.0156013
1782	0.00951941
1794	0.00727177
1806	0.00700734
1818	0.00740398
1830	0.0128248
1842	0.0145435
1854	0.00594963
1866	0.00423085
1878	0.00370199
1890	0.00396642
1902	0.0075362
1914	0.0171878
1926	0.0327891
1938	0.0312025
1950	0.0159979
1962	0.00899055
1974	0.00462749
1986	0.00409863
1998	0.00343756
2010	0.00330535
2022	0.00409863
2034	0.00370199
2046	0.00356978
2058	0.00317314
2070	0.00224764
2082	0.00158657
2094	0.001851
2106	0.001851
2118	0.00224764
2130	0.00224764
2142	0.00237985
2154	0.00264428
2166	0.00264428
2178	0.00290871
2190	0.00290871
2202	0.00330535
2214	0.00330535
2226	0.00343756
2238	0.00330535
2250	0.00343756
2262	0.00423085
2274	0.00515635
2286	0.00449528
2298	0.00330535
2310	0.00251207
2322	0.00145435
2334	0.00145435
2346	0.00343756
2358	0.00145435
2370	0.00555299
2382	0.00621406
2394	0.00542077
2406	0.0056852
2418	0.00542077
2430	0.00528856
2442	0.00740398
2454	0.00766841
2466	0.00608184
2478	0.00555299
2490	0.00396642
2502	0.00396642
2514	0.00396642
2526	0.00409863
2538	0.00423085
2550	0.00462749
2562	0.00502413
2574	0.00727177
2586	0.0104449
2598	0.0124281
2610	0.0107093
2622	0.00859391
2634	0.00832948
2646	0.00634627
2658	0.00806505
2670	0.00859391
2682	0.00766841
2694	0.00700734
2706	0.00780063
2718	0.0105771
2730	0.0142791
2742	0.0159979
2754	0.0159979
2766	0.01732
2778	0.015469
2790	0.013618
2802	0.0169234
2814	0.0227408
2826	0.0271039
2838	0.0309381
2850	0.0433662
2862	0.0731143
2874	0.177563
2886	0.292193
2898	0.29259
2910	0.277121
2922	0.257685
2934	0.322602
2946	0.375091
2958	0.475574
2970	1.19826
2982	1.11311
2994	0.351028
3006	0.186818
3018	0.208369
3030	0.286508
3042	0.223706
3054	0.208766
3066	0.293515
3078	0.307265
3090	0.172936
3102	0.0749653
3114	0.0346401
3126	0.020361
3138	0.0157335
3150	0.0163945
3162	0.0170556
3174	0.01732
3186	0.0187744
3198	0.0170556
3210	0.0153368
3222	0.0142791
3234	0.0124281
3246	0.0105771
3258	0.00700734
3270	0.00727177
3282	0.00885834
3294	0.00912277
3306	0.00727177
3318	0.00528856
3330	0.00608184
3342	0.00594963
3354	0.00515635
3366	0.00713956
3378	0.00581742
3390	0.00740398
3402	0.00793284
3414	0.00912277
3426	0.00925498
3438	0.00832948
3450	0.00806505
3462	0.00608184
3474	0.00608184
3486	0.00608184
3498	0.00608184
3510	0.00581742
3522	0.00674291
3534	0.00555299
3546	0.00700734
3558	0.00462749
3570	0.00621406
3582	0.00396642
3594	0.00449528
3606	0.00356978
3618	0.00423085
3630	0.00409863
3642	0.0047597
3654	0.00277649
3666	0.00409863
3678	0.00462749
3690	0.0056852
3702	0.00634627
3714	0.00383421
3726	0.00594963
3738	0.00542077
3750	0.00489192
3762	0.00634627
3774	0.00370199
3786	0.00317314
3798	0.00370199
3810	0.00502413
3822	0.00700734
3834	0.00634627
3846	0.00608184
3858	0.00687513
3870	0.00700734
3882	0.00436306
3894	0.0075362
3906	0.00502413
3918	0.00674291
3930	0.00793284
3942	0.0047597
3954	0.0084617
3966	0.00700734
