Infrared Spectrum: Benzene, 1-iodo-4-methoxy-
Formula: C 7 H 7 I O
CAS: 696-62-8
Origin: Sadtler Research Labs Under US-EPA Contract
1/CM	ABSORBANCE
450	0.0388824
462	0.00265369
474	0.0119993
486	0.0294214
498	0.0516893
510	0.0415361
522	0.0312674
534	0.0229602
546	0.018922
558	0.0199604
570	0.0289599
582	0.119647
594	0.0980713
606	0.0389978
618	0.024114
630	0.0138454
642	0.00565352
654	0.00149991
666	0.0122301
678	0.00565352
690	0.00842259
702	0.00888411
714	0.00796108
726	0.00253832
738	0.000692268
750	0.0126916
762	0.00692268
774	0.0132685
786	0.030229
798	0.0740727
810	0.144569
822	0.215872
834	0.138454
846	0.043036
858	0.011307
870	0.00796108
882	0.00542277
894	0.00611503
906	0.00346134
918	0.00519201
930	0.00449974
942	0.00761495
954	0.00715344
966	0.010384
978	0.0223833
990	0.0584966
1002	0.19222
1014	0.0972637
1026	0.147799
1038	0.253024
1050	0.158299
1062	0.110301
1074	0.0423437
1086	0.0356518
1098	0.0394593
1110	0.0389978
1122	0.0249216
1134	0.0158068
1146	0.0211142
1158	0.0459204
1170	0.268138
1182	0.237448
1194	0.0706113
1206	0.055843
1218	0.113878
1230	0.335404
1242	1.07221
1254	0.585774
1266	0.321443
1278	0.525893
1290	0.379017
1302	0.109032
1314	0.0530739
1326	0.0371517
1338	0.0267677
1350	0.0216911
1362	0.020768
1374	0.0190374
1386	0.0196143
1398	0.0282676
1410	0.0259601
1422	0.0443052
1434	0.0548046
1446	0.12507
1458	0.135685
1470	0.222103
1482	0.68973
1494	0.782724
1506	0.0993405
1518	0.0469588
1530	0.028383
1542	0.0320751
1554	0.0460358
1566	0.101071
1578	0.161529
1590	0.224756
1602	0.0969175
1614	0.029306
1626	0.0223833
1638	0.0170759
1650	0.0115378
1662	0.00865335
1674	0.00496125
1686	0.00888411
1698	0.00853797
1710	0.00507663
1722	0.00899948
1734	0.00980713
1746	0.0125762
1758	0.0078457
1770	0.00738419
1782	0.00253832
1794	0.00599966
1806	0.00599966
1818	0.00796108
1830	0.00899948
1842	0.0109609
1854	0.0132685
1866	0.0183451
1878	0.0159222
1890	0.0107302
1902	0.00484588
1914	0.00415361
1926	0.00149991
1938	0.00230756
1950	0.00323058
1962	0.00634579
1974	0.00357672
1986	0.00311521
1998	0.00403823
2010	0.0068073
2022	0.0133838
2034	0.0167298
2046	0.0158068
2058	0.0196143
2070	0.0194989
2082	0.0116532
2094	0.00565352
2106	0.0036921
2118	0.00230756
2130	0.0010384
2142	0.000461512
2154	0.00161529
2166	0.00138454
2178	0.00161529
2190	0.00138454
2202	0.00184605
2214	0.0010384
2226	0.000807646
2238	0.00230756
2250	0.00184605
2262	0.00461512
2274	0.0078457
2286	0.00669192
2298	0.0068073
2310	0.00726881
2322	0.00565352
2334	0.00507663
2346	0.010384
2358	0.0102686
2370	0.00830722
2382	0.00773033
2394	0.00346134
2406	0.00288445
2418	0.00357672
2430	0.00276907
2442	0.00219218
2454	0.00323058
2466	0.00380747
2478	0.00461512
2490	0.00599966
2502	0.00611503
2514	0.00911486
2526	0.0111917
2538	0.00876873
2550	0.00646117
2562	0.0047305
2574	0.00357672
2586	0.00311521
2598	0.00288445
2610	0.00299983
2622	0.00299983
2634	0.00346134
2646	0.00357672
2658	0.00288445
2670	0.00253832
2682	0.00253832
2694	0.00265369
2706	0.00230756
2718	0.00253832
2730	0.00323058
2742	0.00380747
2754	0.00415361
2766	0.0047305
2778	0.00692268
2790	0.00899948
2802	0.0131531
2814	0.0197296
2826	0.0272292
2838	0.0617272
2850	0.104532
2862	0.0499587
2874	0.0319597
2886	0.0290753
2898	0.042113
2910	0.0685345
2922	0.0776494
2934	0.086072
2946	0.142492
2958	0.133146
2970	0.0886103
2982	0.0541123
2994	0.0455743
3006	0.104417
3018	0.116186
3030	0.0361133
3042	0.0281522
3054	0.0237679
3066	0.0278061
3078	0.0505356
3090	0.0437283
3102	0.0349595
3114	0.0145376
3126	0.00749957
3138	0.00773033
3150	0.00553814
3162	0.00415361
3174	0.00530739
3186	0.0036921
3198	0.00392285
3210	0.00415361
3222	0.0036921
3234	0.00323058
3246	0.00299983
3258	0.00299983
3270	0.00299983
3282	0.0020768
3294	0.00323058
3306	0.00403823
3318	0.00311521
3330	0.00276907
3342	0.00392285
3354	0.00311521
3366	0.00311521
3378	0.00323058
3390	0.00149991
3402	0.00138454
3414	0.00380747
3426	0.00323058
3438	0.00311521
3450	0.00219218
3462	0.00276907
3474	0.00334596
3486	0.00242294
3498	0.00253832
3510	0.0020768
3522	0.00392285
3534	0.00357672
3546	0.00265369
3558	0.00115378
3570	0.0047305
3582	0.00138454
3594	0.00230756
3606	0.00392285
3618	0.00173067
3630	0.00542277
3642	0.00230756
3654	0.00530739
3666	0.0036921
3678	0.00323058
3690	0.00611503
3702	0.00426899
3714	0.00380747
3726	0.00288445
3738	0.0010384
3750	0.00819184
3762	0.000461512
3774	0.00334596
3786	0.00184605
3798	0.00426899
3810	0.00230756
3822	0.00773033
3834	0.00461512
3846	0.00657655
3858	0.0036921
3870	0.0036921
3882	0.00553814
3894	0.00334596
3906	0.0020768
3918	0.00830722
3930	0.00588428
3942	0
3954	0.00242294
3966	0.00865335
