Infrared Spectrum: trans-1,2-Cyclopropanedicarboxylic acid
Formula: C 5 H 6 O 4
CAS: 696-75-3
Origin: Sadtler Research Labs Under US-EPA Contract
1/CM	ABSORBANCE
450	0.0265661
462	0.0345359
474	0.0449209
486	0.0344152
498	0.0249963
510	0.0363473
522	0.0489058
534	0.079336
546	0.119185
558	0.195019
570	0.274235
582	0.29428
594	0.238733
606	0.177631
618	0.181857
630	0.091653
642	0.0409359
654	0.0163019
666	0.0096604
678	0.00217359
690	0.00205284
702	0.00193208
714	0.00688304
726	0.0254793
738	0.0462492
750	0.0439548
762	0.0274114
774	0.0184755
786	0.0207699
798	0.023185
810	0.0317586
822	0.0464907
834	0.0514416
846	0.0368303
858	0.0161812
870	0.0114717
882	0.0155774
894	0.0211321
906	0.0227019
918	0.0280152
930	0.0612228
942	0.0963625
954	0.0717285
966	0.0374341
978	0.0184755
990	0.0190793
1002	0.0307925
1014	0.0702794
1026	0.084287
1038	0.0475775
1050	0.0513209
1062	0.0759549
1074	0.0830794
1086	0.132106
1098	0.229555
1110	0.46056
1122	0.697239
1134	1.09899
1146	0.99321
1158	0.453194
1170	0.325797
1182	0.298869
1194	0.20154
1206	0.13428
1218	0.0918946
1230	0.0736606
1242	0.0664153
1254	0.0723322
1266	0.0864606
1278	0.101434
1290	0.105902
1302	0.119547
1314	0.152393
1326	0.157827
1338	0.133072
1350	0.145631
1362	0.182461
1374	0.230763
1386	0.278582
1398	0.234627
1410	0.183185
1422	0.172317
1434	0.111457
1446	0.072453
1458	0.0688303
1470	0.0518039
1482	0.0280152
1494	0.0170265
1506	0.0140076
1518	0.011834
1530	0.0130415
1542	0.0155774
1554	0.0190793
1566	0.0210114
1578	0.0225812
1590	0.0224604
1602	0.023185
1614	0.0254793
1626	0.024634
1638	0.0259623
1650	0.0313963
1662	0.0427473
1674	0.0594115
1686	0.0883927
1698	0.128121
1710	0.173887
1722	0.213495
1734	0.239336
1746	0.349827
1758	0.751579
1770	1.17507
1782	1.01362
1794	0.455971
1806	0.148529
1818	0.0877889
1830	0.0584454
1842	0.0322416
1854	0.0155774
1866	0.00893587
1878	0.00784908
1890	0.00676228
1902	0.0048302
1914	0.00362265
1926	0.00313963
1938	0.00531322
1950	0.00627926
1962	0.00362265
1974	0.00229435
1986	0.00205284
1998	0.00193208
2010	0.0024151
2022	0.00229435
2034	0.00132831
2046	0.00108679
2058	0.00072453
2070	0.00096604
2082	0.00181133
2094	0.00217359
2106	0.00193208
2118	0.00289812
2130	0.0024151
2142	0.00120755
2154	0.000362265
2166	0
2178	0
2190	0.00048302
2202	0.00108679
2214	0.00132831
2226	0.00169057
2238	0.00277736
2250	0.00398492
2262	0.00362265
2274	0.00410567
2286	0.0048302
2298	0.00676228
2310	0.00881512
2322	0.00869436
2334	0.00712455
2346	0.0100227
2358	0.00978115
2370	0.00990191
2382	0.0105057
2394	0.00688304
2406	0.00748681
2418	0.0072453
2430	0.00772832
2442	0.00893587
2454	0.00941889
2466	0.00978115
2478	0.0105057
2490	0.0114717
2502	0.0115925
2514	0.0120755
2526	0.012317
2538	0.0126793
2550	0.0126793
2562	0.0125585
2574	0.0129208
2586	0.0131623
2598	0.0131623
2610	0.0130415
2622	0.0131623
2634	0.0129208
2646	0.0128
2658	0.0124378
2670	0.0124378
2682	0.0121963
2694	0.012317
2706	0.0126793
2718	0.0134038
2730	0.0138868
2742	0.0132831
2754	0.0134038
2766	0.0137661
2778	0.0144906
2790	0.0155774
2802	0.0164227
2814	0.0170265
2826	0.018234
2838	0.0194416
2850	0.0208906
2862	0.0223397
2874	0.023668
2886	0.0253586
2898	0.0271699
2910	0.0280152
2922	0.0280152
2934	0.0293435
2946	0.0303095
2958	0.0307925
2970	0.0317586
2982	0.0335699
2994	0.0351397
3006	0.0368303
3018	0.0415397
3030	0.0467322
3042	0.0444378
3054	0.0396076
3066	0.0397284
3078	0.0417812
3090	0.0409359
3102	0.0393661
3114	0.0398491
3126	0.0396076
3138	0.0390039
3150	0.0387624
3162	0.0381586
3174	0.0380378
3186	0.0375548
3198	0.0371925
3210	0.0367095
3222	0.0367095
3234	0.0362265
3246	0.0345359
3258	0.0336906
3270	0.0327246
3282	0.0316378
3294	0.0301888
3306	0.0288604
3318	0.0283774
3330	0.0264453
3342	0.0253586
3354	0.0239095
3366	0.0227019
3378	0.0202868
3390	0.0189585
3402	0.0179925
3414	0.0169057
3426	0.0158189
3438	0.0143698
3450	0.0134038
3462	0.012317
3474	0.0100227
3486	0.00893587
3498	0.0085736
3510	0.00881512
3522	0.0120755
3534	0.0124378
3546	0.0115925
3558	0.0249963
3570	0.292831
3582	0.498114
3594	0.157585
3606	0.017751
3618	0.0096604
3630	0.00941889
3642	0.00567549
3654	0.00495095
3666	0.000845285
3678	0.00446794
3690	0.00458869
3702	0.0037434
3714	0.00555473
3726	0.00470945
3738	0.00531322
3750	0.00796983
3762	0.00301888
3774	0.00193208
3786	0.00277736
3798	0.00277736
3810	0.00265661
3822	0.00507171
3834	0.00470945
3846	0.00265661
3858	0.00519247
3870	0.00555473
3882	0.00712455
3894	0.00386416
3906	0.00627926
3918	0.00579624
3930	0.00398492
3942	0.00422642
3954	0.00470945
3966	0.00362265
