Infrared Spectrum: 1,5-Diacetoxypentane
Formula: C 9 H 16 O 4
CAS: 6963-44-6
Origin: Sadtler Research Labs Under US-EPA Contract
1/CM	ABSORBANCE
450	0.0254815
462	0.0144781
474	0.0188215
486	0.0179528
498	0.0144781
510	0.0162155
522	0.016505
534	0.0180976
546	0.0128855
558	0.0130303
570	0.013899
582	0.016505
594	0.0234545
606	0.0390909
618	0.0312727
630	0.0427104
642	0.0380774
654	0.0230202
666	0.0144781
678	0.010569
690	0.00998989
702	0.0091212
714	0.0110034
726	0.0136094
738	0.0154916
750	0.013899
762	0.0120168
774	0.0111481
786	0.00781817
798	0.000289562
810	0.00665993
822	0.0166498
834	0.0214276
846	0.0224411
858	0.0262054
870	0.0308384
882	0.0299697
894	0.0283771
906	0.027074
918	0.0288114
930	0.0324309
942	0.0372087
954	0.0388013
966	0.0377878
978	0.0393804
990	0.0388013
1002	0.0596498
1014	0.100912
1026	0.167946
1038	0.228754
1050	0.217461
1062	0.202259
1074	0.1817
1086	0.133199
1098	0.0781817
1110	0.0509629
1122	0.0348922
1134	0.0266397
1146	0.0238889
1158	0.0256262
1170	0.0327205
1182	0.0471986
1194	0.0890403
1206	0.2247
1218	0.639932
1230	1.43492
1242	1.05024
1254	0.463734
1266	0.247865
1278	0.1623
1290	0.103229
1302	0.0631245
1314	0.044303
1326	0.0327205
1338	0.0299697
1350	0.0460404
1362	0.162155
1374	0.241639
1386	0.142899
1398	0.110468
1410	0.0463299
1422	0.0347474
1434	0.0408282
1446	0.0508181
1458	0.065441
1470	0.0619663
1482	0.0422761
1494	0.0250471
1506	0.0208485
1518	0.0182424
1530	0.0162155
1542	0.0153468
1554	0.0120168
1566	0.0102795
1578	0.00926598
1590	0.00825252
1602	0.00767339
1614	0.00810774
1626	0.00984511
1638	0.0107138
1650	0.0141885
1662	0.0133199
1674	0.0149124
1686	0.0188215
1698	0.025771
1710	0.03967
1722	0.0745622
1734	0.142175
1746	0.322717
1758	0.805851
1770	0.740989
1782	0.281889
1794	0.11901
1806	0.0587811
1818	0.0302592
1830	0.0192559
1842	0.0140438
1854	0.0104242
1866	0.0104242
1878	0.00868686
1890	0.00767339
1902	0.00723905
1914	0.00651514
1926	0.00564646
1938	0.00550168
1950	0.00506734
1962	0.00477777
1974	0.00477777
1986	0.00521212
1998	0.00637036
2010	0.00709427
2022	0.00665993
2034	0.00622558
2046	0.00680471
2058	0.00694949
2070	0.00738383
2082	0.00709427
2094	0.00665993
2106	0.00665993
2118	0.00564646
2130	0.00463299
2142	0.00405387
2154	0.00361952
2166	0.00318518
2178	0.0030404
2190	0.00275084
2202	0.00246128
2214	0.0023165
2226	0.00217171
2238	0.00188215
2250	0.00188215
2262	0.00159259
2274	0.00173737
2286	0.000868686
2298	0.000723905
2310	0
2322	0.00101347
2334	0.00188215
2346	0.00159259
2358	0.00144781
2370	0.00188215
2382	0.000579124
2394	0.00115825
2406	0.00115825
2418	0.00115825
2430	0.00130303
2442	0.00188215
2454	0.00260606
2466	0.00289562
2478	0.0023165
2490	0.00144781
2502	0.00130303
2514	0.00130303
2526	0.00101347
2538	0.00101347
2550	0.000723905
2562	0.000723905
2574	0.00115825
2586	0.00130303
2598	0.00173737
2610	0.00188215
2622	0.00159259
2634	0.00159259
2646	0.00144781
2658	0.00202693
2670	0.00217171
2682	0.00260606
2694	0.00275084
2706	0.0030404
2718	0.00289562
2730	0.00318518
2742	0.00390909
2754	0.00361952
2766	0.00361952
2778	0.00361952
2790	0.00361952
2802	0.00390909
2814	0.00506734
2826	0.00709427
2838	0.0102795
2850	0.0209932
2862	0.0412626
2874	0.054872
2886	0.0505286
2898	0.0537138
2910	0.0716666
2922	0.095845
2934	0.126394
2946	0.179818
2958	0.205155
2970	0.17866
2982	0.116259
2994	0.0616767
3006	0.0289562
3018	0.0196902
3030	0.0178081
3042	0.0156363
3054	0.0140438
3066	0.0131751
3078	0.0110034
3090	0.00854208
3102	0.00680471
3114	0.00492255
3126	0.00419865
3138	0.0030404
3150	0.00260606
3162	0.00202693
3174	0.00173737
3186	0.00159259
3198	0.00144781
3210	0.00144781
3222	0.00130303
3234	0.00115825
3246	0.000868686
3258	0.00101347
3270	0.00115825
3282	0.000868686
3294	0.00115825
3306	0.00115825
3318	0.00101347
3330	0.00115825
3342	0.00130303
3354	0.00115825
3366	0.00159259
3378	0.00173737
3390	0.00101347
3402	0.00115825
3414	0.00144781
3426	0.00159259
3438	0.00130303
3450	0.00115825
3462	0.00159259
3474	0.0023165
3486	0.00275084
3498	0.00622558
3510	0.00767339
3522	0.00289562
3534	0.000723905
3546	0.000434343
3558	0.000434343
3570	0.00144781
3582	0.00318518
3594	0.00246128
3606	0.00217171
3618	0.000434343
3630	0.00130303
3642	0.000868686
3654	0.00159259
3666	0.000579124
3678	0.00115825
3690	0.000579124
3702	0.00188215
3714	0.000579124
3726	0.000579124
3738	0.00101347
3750	0
3762	0.00130303
3774	0.00101347
3786	0.000868686
3798	0
3810	0.00130303
3822	0
3834	0
3846	0
3858	0.00115825
3870	0
3882	0
3894	0.000868686
3906	0
3918	0.000723905
3930	0.000434343
3942	0.000434343
3954	0.000289562
3966	0.00101347
