Infrared Spectrum: Benzene, 1-(3-chloro-1-methoxypropyl)-4-methyl-
Formula: C 11 H 15 Cl O
CAS: 6968-70-3
Origin: Sadtler Research Labs Under US-EPA Contract
1/CM	ABSORBANCE
450	0.0225113
462	0.00622171
474	0.00825791
486	0.00395927
498	0.0236425
510	0.026414
522	0.0249434
534	0.0385746
546	0.0528845
558	0.0507352
570	0.0459841
582	0.0132353
594	0.00616515
606	0.00480768
618	0.0139706
630	0.0113688
642	0.0143665
654	0.0307692
666	0.0850112
678	0.0367081
690	0.0223982
702	0.0264705
714	0.0643664
726	0.0682126
738	0.0212104
750	0.0372171
762	0.0389705
774	0.036595
786	0.0484728
798	0.0709275
810	0.179581
822	0.145645
834	0.045475
846	0.0454185
858	0.0391968
870	0.0497737
882	0.037104
894	0.0354072
906	0.0304298
918	0.0263009
930	0.0247737
942	0.0340497
954	0.0503393
966	0.0664592
978	0.0528845
990	0.0422511
1002	0.0421379
1014	0.0564479
1026	0.0708709
1038	0.0652714
1050	0.0752827
1062	0.0940609
1074	0.12302
1086	0.154355
1098	0.347398
1110	0.56561
1122	0.310237
1134	0.106617
1146	0.0867646
1158	0.0778845
1170	0.0558823
1182	0.102432
1194	0.0912329
1206	0.0955315
1218	0.0773754
1230	0.0757352
1242	0.0641967
1254	0.0593891
1266	0.0577488
1278	0.0773754
1290	0.100226
1302	0.089027
1314	0.0744343
1326	0.0576357
1338	0.0617646
1350	0.106731
1362	0.111425
1374	0.057975
1386	0.0419117
1398	0.0311651
1410	0.0428167
1422	0.0618777
1434	0.0616515
1446	0.0868777
1458	0.0730768
1470	0.0557691
1482	0.0462103
1494	0.0509615
1506	0.0929297
1518	0.125339
1530	0.0288461
1542	0.0133484
1554	0.0151583
1566	0.0121041
1578	0.011595
1590	0.0171945
1602	0.0204751
1614	0.0248303
1626	0.0208144
1638	0.0146493
1650	0.016233
1662	0.0127262
1674	0.00791854
1686	0.00226244
1698	0.00107466
1710	0.00701356
1722	0.00610859
1734	0.00582578
1746	0.00910632
1758	0.0113688
1770	0.00955881
1782	0.0118212
1794	0.0128959
1806	0.00837103
1818	0.00542986
1830	0.00339366
1842	0.00226244
1854	0.00492081
1866	0.00622171
1878	0.00814478
1890	0.0122172
1902	0.0164593
1914	0.00831447
1926	0.00610859
1938	0.00458144
1950	0.00401583
1962	0.0043552
1974	0.00458144
1986	0.00441176
1998	0.00509049
2010	0.00486425
2022	0.004638
2034	0.00452488
2046	0.00458144
2058	0.00520361
2070	0.00395927
2082	0.00384615
2094	0.00328054
2106	0.00316742
2118	0.00282805
2130	0.00339366
2142	0.00316742
2154	0.00237556
2166	0.00226244
2178	0.00220588
2190	0.00192307
2202	0.00197963
2214	0.0013009
2226	0.00124434
2238	0.000735293
2250	0.00113122
2262	0.000509049
2274	0.000961537
2286	0.00175339
2298	0.00299773
2310	0.00282805
2322	0.00220588
2334	0.002319
2346	0.00260181
2358	0.0020362
2370	0.00197963
2382	0.00169683
2394	0.00175339
2406	0.00180995
2418	0.00169683
2430	0.00147059
2442	0.00113122
2454	0.00135746
2466	0.00152715
2478	0.00175339
2490	0.00220588
2502	0.00192307
2514	0.0020362
2526	0.00220588
2538	0.00180995
2550	0.00260181
2562	0.00260181
2574	0.0036199
2586	0.00548642
2598	0.00656108
2610	0.00548642
2622	0.00486425
2634	0.00554298
2646	0.00514705
2658	0.00582578
2670	0.00497737
2682	0.00554298
2694	0.00616515
2706	0.00746605
2718	0.00774886
2730	0.00972849
2742	0.0138574
2754	0.0138574
2766	0.0111425
2778	0.0146493
2790	0.0182692
2802	0.027319
2814	0.0461538
2826	0.125509
2838	0.136538
2850	0.100509
2862	0.114593
2874	0.145588
2886	0.17466
2898	0.155939
2910	0.175339
2922	0.23716
2934	0.306561
2946	0.257579
2958	0.199321
2970	0.206787
2982	0.197172
2994	0.205769
3006	0.167421
3018	0.167647
3030	0.196776
3042	0.116685
3054	0.1069
3066	0.0821266
3078	0.0536198
3090	0.0437217
3102	0.0338235
3114	0.0189479
3126	0.0148755
3138	0.0122172
3150	0.00729637
3162	0.00378959
3174	0.00339366
3186	0.00305429
3198	0.00237556
3210	0.00288461
3222	0.002319
3234	0.00220588
3246	0.00254525
3258	0.00141403
3270	0.00248868
3282	0.00169683
3294	0.00124434
3306	0.00169683
3318	0.00265837
3330	0.00197963
3342	0.00288461
3354	0.00197963
3366	0.00209276
3378	0.002319
3390	0.00192307
3402	0.002319
3414	0.002319
3426	0.00197963
3438	0.00237556
3450	0.00288461
3462	0.00135746
3474	0.00118778
3486	0.00260181
3498	0.00243212
3510	0.00260181
3522	0.00277149
3534	0.00299773
3546	0.00282805
3558	0.00418551
3570	0.00328054
3582	0.00407239
3594	0.00322398
3606	0.00418551
3618	0.00311086
3630	0.000904976
3642	0.00610859
3654	0.00311086
3666	0.0066742
3678	0.004638
3690	0.0020362
3702	0.00542986
3714	0.00322398
3726	0.00588234
3738	0.00548642
3750	0
3762	0.00475112
3774	0.00492081
3786	0.00639139
3798	0.00378959
3810	0.00554298
3822	0.000678732
3834	0.00378959
3846	0.00520361
3858	0.00475112
3870	0.00639139
3882	0.00599547
3894	0.00412895
3906	0.0033371
3918	0.00237556
3930	0.00740949
3942	0.00169683
3954	0.00418551
3966	0.00531673
