Infrared Spectrum: Phenyl N,N-dimethylcarbamate
Formula: C 9 H 11 N O 2
CAS: 6969-90-0
Origin: Sadtler Research Labs Under US-EPA Contract
1/CM	ABSORBANCE
450	0.010023
462	0.0143727
474	0.0122924
486	0.0219372
498	0.0355534
510	0.0206134
522	0.0102122
534	0.00472785
546	0.00208025
558	0.00113468
570	0
582	0.00510608
594	0.0119142
606	0.02988
618	0.0147509
630	0.0124815
642	0.0175876
654	0.01494
666	0.0266651
678	0.0747
690	0.11952
702	0.0546539
714	0.0268542
726	0.0527628
738	0.150535
750	0.195922
762	0.125004
774	0.0631641
786	0.0283671
798	0.019857
810	0.0191005
822	0.0204243
834	0.0832102
846	0.163584
858	0.0272324
870	0.00888836
882	0.0102122
894	0.0147509
906	0.0268542
918	0.0111577
930	0.00586253
942	0.00491696
954	0.00321494
966	0.00397139
978	0.0119142
990	0.0336623
1002	0.0771585
1014	0.0782932
1026	0.103824
1038	0.0557886
1050	0.069594
1062	0.0905856
1074	0.0769694
1086	0.0607056
1098	0.0747
1110	0.11309
1122	0.163394
1134	0.265327
1146	0.504745
1158	0.961456
1170	1.38337
1182	0.888079
1194	0.839288
1206	1.64302
1218	1.37807
1230	0.504745
1242	0.191951
1254	0.121979
1266	0.135406
1278	0.135973
1290	0.112334
1302	0.096259
1314	0.099474
1326	0.08964
1338	0.110443
1350	0.166799
1362	0.374824
1374	0.823213
1386	0.883541
1398	0.43553
1410	0.247361
1422	0.167177
1434	0.145996
1446	0.30731
1458	0.402624
1470	0.285373
1482	0.263814
1494	0.434584
1506	0.224667
1518	0.115738
1530	0.10893
1542	0.102878
1554	0.0854795
1566	0.0686484
1578	0.0828319
1590	0.157343
1602	0.125004
1614	0.0387684
1626	0.0272324
1638	0.0266651
1650	0.0260977
1662	0.021559
1674	0.0253413
1686	0.0313929
1698	0.0463329
1710	0.0932332
1722	0.188547
1734	0.494155
1746	1.46582
1758	1.6487
1770	0.500396
1782	0.127463
1794	0.0588145
1806	0.0276106
1818	0.0139944
1830	0.0113468
1842	0.0121033
1854	0.0128598
1866	0.0111577
1878	0.00567342
1890	0.0013238
1902	0.00094557
1914	0.00453874
1926	0.00832102
1938	0.00794279
1950	0.00737545
1962	0.00226937
1974	0.00245848
1986	0.00586253
1998	0.0143727
2010	0.0168311
2022	0.0158856
2034	0.0134271
2046	0.0124815
2058	0.00642988
2070	0.00226937
2082	0.000567342
2094	0.0013238
2106	0.00245848
2118	0.0026476
2130	0.00208025
2142	0.0013238
2154	0.00094557
2166	0.00189114
2178	0.00208025
2190	0.00113468
2202	0.00094557
2214	0.0013238
2226	0.00226937
2238	0.00245848
2250	0.00321494
2262	0.00434962
2274	0.00567342
2286	0.00832102
2298	0.00964481
2310	0.0136162
2322	0.0102122
2334	0.00756456
2346	0.0081319
2358	0.00548431
2370	0.00548431
2382	0.00775367
2394	0.00397139
2406	0.00434962
2418	0.00340405
2430	0.00208025
2442	0.00151291
2454	0.000378228
2466	0
2478	0.000378228
2490	0.0013238
2502	0.0013238
2514	0.00113468
2526	0.000756456
2538	0.00113468
2550	0.00151291
2562	0.0013238
2574	0.00245848
2586	0.0026476
2598	0.00245848
2610	0.00226937
2622	0.00151291
2634	0.000756456
2646	0.0013238
2658	0.0013238
2670	0.00113468
2682	0.00151291
2694	0.00189114
2706	0.00283671
2718	0.00340405
2730	0.00434962
2742	0.00567342
2754	0.00775367
2766	0.00869924
2778	0.0102122
2790	0.0139944
2802	0.0240175
2814	0.04482
2826	0.0451982
2838	0.0474676
2850	0.0576798
2862	0.0798061
2874	0.096259
2886	0.105147
2898	0.122735
2910	0.145429
2922	0.178335
2934	0.232421
2946	0.242822
2958	0.1772
2970	0.106471
2982	0.0656226
2994	0.0463329
3006	0.0397139
3018	0.0463329
3030	0.068081
3042	0.105904
3054	0.120277
3066	0.0941788
3078	0.117629
3090	0.0919094
3102	0.0521955
3114	0.0332841
3126	0.0164529
3138	0.010023
3150	0.00642988
3162	0.00472785
3174	0.00283671
3186	0.00226937
3198	0.00189114
3210	0.00151291
3222	0.00113468
3234	0.000756456
3246	0.000567342
3258	0.00094557
3270	0.000378228
3282	0.000756456
3294	0.000189114
3306	0.000756456
3318	0.000189114
3330	0.000567342
3342	0.000189114
3354	0
3366	0.000756456
3378	0.000189114
3390	0.000189114
3402	0.000756456
3414	0.000567342
3426	0
3438	0.000378228
3450	0.000567342
3462	0.00189114
3474	0.00359317
3486	0.00605165
3498	0.00491696
3510	0.00094557
3522	0.000378228
3534	0.000378228
3546	0.000567342
3558	0.000756456
3570	0.00151291
3582	0.000756456
3594	0
3606	0.00094557
3618	0.000756456
3630	0.00113468
3642	0.00283671
3654	0.00113468
3666	0.00151291
3678	0.00189114
3690	0.000378228
3702	0.000567342
3714	0.000756456
3726	0.000378228
3738	0.00094557
3750	0
3762	0
3774	0
3786	0
3798	0
3810	0
3822	0
3834	0
3846	0.000189114
3858	0.000189114
3870	0
3882	0.000378228
3894	0.000378228
3906	0.00113468
3918	0.000378228
3930	0.000189114
3942	0
3954	0.00113468
3966	0
