Infrared Spectrum: trans-2-Tridecenoic acid
Formula: C 13 H 24 O 2
CAS: 6969-16-0
Origin: Sadtler Research Labs Under US-EPA Contract
1/CM	ABSORBANCE
450	0
462	0.0250818
474	0.0258255
486	0.024879
498	0.0321128
510	0.0271776
522	0.0422537
534	0.0531383
546	0.0701074
558	0.087347
570	0.0813976
582	0.0721356
594	0.0436059
606	0.0391439
618	0.0461749
630	0.0466481
642	0.0488791
654	0.0450256
666	0.0252846
678	0.0221072
690	0.0205522
702	0.0296114
714	0.0317072
726	0.0254199
738	0.0186593
750	0.0167663
762	0.00946484
774	0.0102761
786	0.0102761
798	0.00818033
810	0.0112226
822	0.0147381
834	0.0148733
846	0.0188621
858	0.0196057
870	0.0202142
882	0.0202142
894	0.0196057
906	0.0187269
918	0.0155494
930	0.0157522
942	0.0189297
954	0.0265016
966	0.0414425
978	0.0584792
990	0.0514482
1002	0.0355608
1014	0.029679
1026	0.0310312
1038	0.031572
1050	0.0377241
1062	0.0482707
1074	0.0688905
1086	0.0933639
1098	0.14488
1110	0.242908
1122	0.243787
1134	0.216812
1146	0.185376
1158	0.163268
1170	0.125747
1182	0.0847103
1194	0.0563158
1206	0.047189
1218	0.0442143
1230	0.0469862
1242	0.0498932
1254	0.0559102
1266	0.0554369
1278	0.053544
1290	0.0521918
1302	0.0528679
1314	0.0511777
1326	0.0525975
1338	0.0721356
1350	0.106817
1362	0.115065
1374	0.087347
1386	0.0521918
1398	0.0318424
1410	0.0253522
1422	0.0275832
1434	0.0319776
1446	0.0470538
1458	0.0610482
1470	0.0524623
1482	0.025217
1494	0.0171719
1506	0.0124395
1518	0.0138592
1530	0.0090592
1542	0.0127099
1554	0.0116958
1566	0.00973526
1578	0.00980287
1590	0.00865357
1602	0.011155
1614	0.0127775
1626	0.0208903
1638	0.0388058
1650	0.083899
1662	0.0931611
1674	0.0318424
1686	0.0273128
1698	0.0352903
1710	0.049758
1722	0.073961
1734	0.123111
1746	0.250953
1758	0.472228
1770	0.357501
1782	0.189635
1794	0.104384
1806	0.0616567
1818	0.0398875
1830	0.0239325
1842	0.0168339
1854	0.0144001
1866	0.0120339
1878	0.0102761
1890	0.0125071
1902	0.0100733
1914	0.00865357
1926	0.00939723
1938	0.00946484
1950	0.0101409
1962	0.00912681
1974	0.0089916
1986	0.00980287
1998	0.0106141
2010	0.00953245
2022	0.0110874
2034	0.0100733
2046	0.0107494
2058	0.0110198
2070	0.00966766
2082	0.011493
2094	0.00966766
2106	0.00960005
2118	0.00858596
2130	0.00818033
2142	0.0102761
2154	0.00953245
2166	0.00919442
2178	0.00932963
2190	0.00980287
2202	0.0104789
2214	0.00966766
2226	0.0102761
2238	0.0100057
2250	0.00939723
2262	0.00953245
2274	0.00946484
2286	0.00973526
2298	0.010817
2310	0.0113578
2322	0.00946484
2334	0.0106817
2346	0.0116958
2358	0.0106141
2370	0.0127775
2382	0.011493
2394	0.0104113
2406	0.0089916
2418	0.0102085
2430	0.00939723
2442	0.00973526
2454	0.00966766
2466	0.00797751
2478	0.00919442
2490	0.00973526
2502	0.00993808
2514	0.0108846
2526	0.0120339
2538	0.0108846
2550	0.00885639
2562	0.0108846
2574	0.0110198
2586	0.0119663
2598	0.0101409
2610	0.0104113
2622	0.0123043
2634	0.0116282
2646	0.0131156
2658	0.0129804
2670	0.0138592
2682	0.0144677
2694	0.0148057
2706	0.0139944
2718	0.013724
2730	0.0150085
2742	0.0150761
2754	0.0164283
2766	0.0166311
2778	0.0176452
2790	0.0204846
2802	0.0233917
2814	0.0289354
2826	0.0363044
2838	0.0515834
2850	0.101815
2862	0.231956
2874	0.210998
2886	0.151032
2898	0.144136
2910	0.212959
2922	0.383596
2934	0.67606
2946	0.476149
2958	0.241421
2970	0.216407
2982	0.104992
2994	0.0565862
3006	0.0400228
3018	0.0327889
3030	0.0285973
3042	0.0258931
3054	0.0234593
3066	0.0220396
3078	0.0185917
3090	0.0165635
3102	0.0150761
3114	0.0150085
3126	0.0139268
3138	0.0135888
3150	0.013048
3162	0.0127775
3174	0.0128451
3186	0.0124395
3198	0.0117634
3210	0.0102085
3222	0.0113578
3234	0.0117634
3246	0.0102085
3258	0.0102761
3270	0.00932963
3282	0.00953245
3294	0.00953245
3306	0.00939723
3318	0.0089916
3330	0.00932963
3342	0.00878878
3354	0.00831554
3366	0.0090592
3378	0.0090592
3390	0.00966766
3402	0.00966766
3414	0.00811272
3426	0.00980287
3438	0.00939723
3450	0.00946484
3462	0.00872117
3474	0.00960005
3486	0.0103437
3498	0.0106141
3510	0.0116282
3522	0.00912681
3534	0.0104789
3546	0.0121691
3558	0.0183888
3570	0.0524623
3582	0.208632
3594	0.0856568
3606	0.0177804
3618	0.0133184
3630	0.0113578
3642	0.0107494
3654	0.0125747
3666	0.00872117
3678	0.0121691
3690	0.0119663
3702	0.00878878
3714	0.00932963
3726	0.0106817
3738	0.0112902
3750	0.0115606
3762	0.0090592
3774	0.00892399
3786	0.00939723
3798	0.0113578
3810	0.00892399
3822	0.0125071
3834	0.0102085
3846	0.0078423
3858	0.0117634
3870	0.0123043
3882	0.00865357
3894	0.0104789
3906	0.00953245
3918	0.011493
3930	0.00777469
3942	0.0102085
3954	0.0135212
3966	0.0105465
