Infrared Spectrum: Phenol, 2,3,5-trimethyl-
Formula: C 9 H 12 O
CAS: 697-82-5
Origin: Sadtler Research Labs Under US-EPA Contract
1/CM	ABSORBANCE
450	0.0150241
462	0.014212
474	0.0198387
486	0.0248274
498	0.0302802
510	0.0442021
522	0.0374732
534	0.0376472
546	0.0409536
558	0.0641568
570	0.107199
582	0.0985556
594	0.0307442
606	0.0194327
618	0.0109635
630	0.0123557
642	0.0131678
654	0.0134579
666	0.00121817
678	0.00748303
690	0.0185626
702	0.0372991
714	0.0284239
726	0.0229132
738	0.0312663
750	0.0250014
762	0.00899124
774	0.00788909
786	0.014734
798	0.0212889
810	0.0628807
822	0.166135
834	0.191774
846	0.112303
858	0.0482627
870	0.0274378
882	0.0237833
894	0.0342827
906	0.050989
918	0.0392134
930	0.0254075
942	0.0254075
954	0.0530193
966	0.0965253
978	0.0811532
990	0.0634027
1002	0.0707118
1014	0.0732061
1026	0.086838
1038	0.100122
1050	0.117466
1062	0.183131
1074	0.388248
1086	0.512617
1098	0.315215
1110	0.14444
1122	0.136261
1134	0.187308
1146	0.197981
1158	0.280179
1170	0.247868
1182	0.142352
1194	0.105401
1206	0.11445
1218	0.217008
1230	0.186554
1242	0.140031
1254	0.294971
1266	0.498985
1278	0.348686
1290	0.284993
1302	0.37479
1314	0.309357
1326	0.125239
1338	0.0439701
1350	0.0388654
1362	0.0408956
1374	0.0494808
1386	0.07251
1398	0.103428
1410	0.144614
1422	0.21521
1434	0.246708
1446	0.232148
1458	0.234236
1470	0.199257
1482	0.181275
1494	0.218458
1506	0.224491
1518	0.160914
1530	0.12698
1542	0.140379
1554	0.193979
1566	0.282557
1578	0.36023
1590	0.343117
1602	0.2318
1614	0.248622
1626	0.293811
1638	0.153547
1650	0.065549
1662	0.0422878
1674	0.0309763
1686	0.0261616
1698	0.0272058
1710	0.0235512
1722	0.0156042
1734	0.0153721
1746	0.0094553
1758	0.00585881
1770	0.00446662
1782	0.0036545
1794	0.00458263
1806	0.00348048
1818	0.00353849
1830	0.00423458
1842	0.00464064
1854	0.00406056
1866	0.00516271
1878	0.0058008
1890	0.00597482
1902	0.00371251
1914	0.00226231
1926	0.00168223
1938	0.00150821
1950	0.0021463
1962	0.00179825
1974	0.00232032
1986	0.00261036
1998	0.00266837
2010	0.00249434
2022	0.00203028
2034	0.00162422
2046	0.00191426
2058	0.00162422
2070	0.00156622
2082	0.00162422
2094	0.00121817
2106	0.0014502
2118	0.00255235
2130	0.00324845
2142	0.00324845
2154	0.00313243
2166	0.00295841
2178	0.00307442
2190	0.00261036
2202	0.00348048
2214	0.00313243
2226	0.00272638
2238	0.00232032
2250	0.00243634
2262	0.00284239
2274	0.0029004
2286	0.00400255
2298	0.0050467
2310	0.00562678
2322	0.00574279
2334	0.00522072
2346	0.0087012
2358	0.0102094
2370	0.00986136
2382	0.00864319
2394	0.00696096
2406	0.00603283
2418	0.00556877
2430	0.00562678
2442	0.00562678
2454	0.00626486
2466	0.00638088
2478	0.00742502
2490	0.00551076
2502	0.0036545
2514	0.00452462
2526	0.0035965
2538	0.00307442
2550	0.00237833
2562	0.00324845
2574	0.00324845
2586	0.00371251
2598	0.00342247
2610	0.00394454
2622	0.00301642
2634	0.00162422
2646	0.00139219
2658	0.00174024
2670	0.00243634
2682	0.0035965
2694	0.00475666
2706	0.00585881
2718	0.00684494
2730	0.0151981
2742	0.0275538
2754	0.0226231
2766	0.0137479
2778	0.0122977
2790	0.014502
2802	0.0185046
2814	0.0249434
2826	0.0334706
2838	0.0525552
2850	0.0973374
2862	0.183131
2874	0.282151
2886	0.271419
2898	0.231742
2910	0.268055
2922	0.442601
2934	0.58008
2946	0.433726
2958	0.269273
2970	0.20036
2982	0.198387
2994	0.200998
3006	0.233018
3018	0.274494
3030	0.254887
3042	0.186496
3054	0.138581
3066	0.094089
3078	0.057892
3090	0.0374152
3102	0.0260456
3114	0.0195487
3126	0.014676
3138	0.0110795
3150	0.00759905
3162	0.00481466
3174	0.00423458
3186	0.00307442
3198	0.0043506
3210	0.00243634
3222	0.00203028
3234	0.00150821
3246	0.00319044
3258	0.00336446
3270	0.00313243
3282	0.00423458
3294	0.00411857
3306	0.00493068
3318	0.00562678
3330	0.00742502
3342	0.00603283
3354	0.00759905
3366	0.00777307
3378	0.00754104
3390	0.00788909
3402	0.0064969
3414	0.00568478
3426	0.00643889
3438	0.00481466
3450	0.00382853
3462	0.00319044
3474	0.00185626
3486	0.00150821
3498	0.00226231
3510	0.00058008
3522	0.00208829
3534	0.000812112
3546	0.00730901
3558	0.00812112
3570	0.0021463
3582	0.00226231
3594	0.00179825
3606	0.00371251
3618	0.00991937
3630	0.0403736
3642	0.196995
3654	0.392134
3666	0.212831
3678	0.0273798
3690	0.0064969
3702	0.00179825
3714	0.00185626
3726	0.000174024
3738	0.000522072
3750	0.000174024
3762	0.000174024
3774	0.000174024
3786	0.000174024
3798	0.000174024
3810	0.000174024
3822	0.0029004
3834	0.000928128
3846	0.000522072
3858	0.00208829
3870	0.0029004
3882	0.00278438
3894	0.00243634
3906	0.00574279
3918	0.00562678
3930	0.0043506
3942	0.00417658
3954	0
3966	0.000174024
