Infrared Spectrum: Propane, 2,2-bis(3,4-xylyl)-,
Formula: C 19 H 24
CAS: 6970-01-0
Origin: Sadtler Research Labs Under US-EPA Contract
1/CM	ABSORBANCE
450	0
462	0.00582179
474	0.00349307
486	0.00618948
498	0.00416718
510	0.00484128
522	0.00661846
534	0.00520897
546	0.00398333
558	0.00490256
570	0.00514769
582	0.00980512
594	0.019549
606	0.0447359
618	0.018262
630	0.00667974
642	0.00484128
654	0.00576051
666	0.00232872
678	0.00128692
690	0.00416718
702	0.00618948
714	0.0313151
726	0.0403236
738	0.0201618
750	0.0074764
762	0.0044123
774	0.00649589
786	0.00766025
798	0.0161784
810	0.103076
822	0.129611
834	0.02151
846	0.0104792
858	0.0105405
870	0.0185684
882	0.0408751
894	0.026719
906	0.0321118
918	0.0166074
930	0.0107856
942	0.0109082
954	0.00882461
966	0.0115823
978	0.0205908
990	0.0633043
1002	0.0538056
1014	0.0256772
1026	0.0209584
1038	0.0120113
1050	0.0078441
1062	0.00563794
1074	0.0061282
1086	0.0131756
1098	0.0144013
1110	0.0144013
1122	0.0405687
1134	0.0900845
1146	0.0634882
1158	0.0327859
1170	0.0208359
1182	0.0396495
1194	0.0155043
1206	0.0133595
1218	0.0248192
1230	0.0229195
1242	0.0508028
1254	0.0506802
1266	0.0321731
1278	0.0431425
1290	0.0265964
1302	0.0180169
1314	0.0117661
1326	0.0117661
1338	0.0129305
1350	0.0190587
1362	0.0576664
1374	0.0476161
1386	0.0786248
1398	0.0637946
1410	0.0464518
1422	0.0371982
1434	0.0479838
1446	0.0853045
1458	0.13004
1470	0.113004
1482	0.101912
1494	0.14101
1506	0.25334
1518	0.0714548
1530	0.0324795
1542	0.0260449
1554	0.0268415
1566	0.0274543
1578	0.02868
1590	0.0254933
1602	0.0403236
1614	0.0595048
1626	0.0201005
1638	0.0106631
1650	0.00465743
1662	0.00453487
1674	0.00410589
1686	0.00582179
1698	0.00772153
1710	0.0170364
1722	0.018262
1734	0.00723128
1746	0.0132982
1758	0.0166074
1770	0.0123177
1782	0.00643461
1794	0.00386077
1806	0.0044123
1818	0.00416718
1830	0.00361564
1842	0.00379948
1854	0.00355436
1866	0.0061282
1878	0.0105405
1890	0.00925358
1902	0.00704743
1914	0.00361564
1926	0.00239
1938	0.00147077
1950	0.00153205
1962	0.00140949
1974	0.00147077
1986	0.00122564
1998	0.00104179
2010	0.00061282
2022	0.000428974
2034	0.00091923
2046	0.000674102
2058	0.000551538
2070	0.00030641
2082	0.000490256
2094	0.00030641
2106	0.00061282
2118	0.00110308
2130	0.00147077
2142	0.000735384
2154	0.000428974
2166	0.000183846
2178	0.000551538
2190	0.000674102
2202	0.000735384
2214	0.000735384
2226	0.00104179
2238	0.00128692
2250	0.00159333
2262	0.00196102
2274	0.00232872
2286	0.00349307
2298	0.00618948
2310	0.00772153
2322	0.00655717
2334	0.00514769
2346	0.00698615
2358	0.00686358
2370	0.00692487
2382	0.00618948
2394	0.0013482
2406	0.00147077
2418	0.000796666
2430	0.000857948
2442	0.00140949
2454	0.00202231
2466	0.00214487
2478	0.00220615
2490	0.00214487
2502	0.00202231
2514	0.00183846
2526	0.00147077
2538	0.00140949
2550	0.00153205
2562	0.00189974
2574	0.00220615
2586	0.00214487
2598	0.00239
2610	0.00208359
2622	0.00177718
2634	0.00183846
2646	0.00202231
2658	0.00208359
2670	0.00245128
2682	0.00337051
2694	0.00453487
2706	0.00563794
2718	0.00839563
2730	0.012379
2742	0.0193038
2754	0.0107856
2766	0.0113985
2778	0.00937615
2790	0.00992768
2802	0.0120726
2814	0.015872
2826	0.0227356
2838	0.0332148
2850	0.0544797
2862	0.101667
2874	0.20315
2886	0.221289
2898	0.18115
2910	0.179311
2922	0.261797
2934	0.437002
2946	0.326327
2958	0.255485
2970	0.480819
2982	0.452077
2994	0.162336
3006	0.124954
3018	0.171283
3030	0.162152
3042	0.098235
3054	0.0991543
3066	0.0948645
3078	0.0814438
3090	0.0528864
3102	0.0311925
3114	0.0259836
3126	0.0203456
3138	0.0112759
3150	0.00723128
3162	0.00557666
3174	0.00435102
3186	0.00337051
3198	0.00337051
3210	0.00318666
3222	0.0037382
3234	0.00355436
3246	0.00337051
3258	0.00300282
3270	0.00294154
3282	0.00275769
3294	0.00281897
3306	0.00226743
3318	0.00189974
3330	0.00128692
3342	0.00091923
3354	0.00104179
3366	0.00140949
3378	0.00122564
3390	0.00165461
3402	0.0013482
3414	0.00220615
3426	0.00110308
3438	0.00177718
3450	0.00147077
3462	0.000551538
3474	0.00128692
3486	0.000980512
3498	0.00110308
3510	0.00183846
3522	0.00091923
3534	0.00140949
3546	0.00208359
3558	0.00165461
3570	0.00288025
3582	0.00177718
3594	0.00147077
3606	0.00116436
3618	0.00177718
3630	0.00208359
3642	0.00110308
3654	0.00116436
3666	0.00140949
3678	0.00251256
3690	0.00110308
3702	0.00147077
3714	0.00110308
3726	0.00183846
3738	0.00128692
3750	0.000735384
3762	0.00153205
3774	0.00091923
3786	0.000183846
3798	0.000183846
3810	0.000490256
3822	0.00104179
3834	0.00104179
3846	0.00153205
3858	0.000122564
3870	0.0013482
3882	0.00147077
3894	0.00153205
3906	0.000980512
3918	0.00128692
3930	0.00239
3942	0.00245128
3954	0.000490256
3966	0.000857948
