Infrared Spectrum: 3-Methoxybenzyl alcohol
Formula: C 8 H 10 O 2
CAS: 6971-51-3
Origin: Sadtler Research Labs Under US-EPA Contract
1/CM	ABSORBANCE
450	0
462	0.0202277
474	0.00780524
486	0.00879464
498	0.00670591
510	0.013082
522	0.0216568
534	0.0337494
546	0.0499096
558	0.0447427
570	0.0373772
582	0.0200078
594	0.0149509
606	0.011433
618	0.0172595
630	0.0178091
642	0.013082
654	0.0105536
666	0.0105536
678	0.0570552
690	0.169517
702	0.141814
714	0.0842087
726	0.140165
738	0.168637
750	0.103117
762	0.118288
774	0.217447
786	0.248559
798	0.0988298
810	0.0256144
822	0.0169297
834	0.0283627
846	0.0673889
858	0.104766
870	0.122026
882	0.11466
894	0.0924537
906	0.0811306
918	0.0690379
930	0.0500195
942	0.0455123
954	0.0576049
966	0.0904749
978	0.127412
990	0.176223
1002	0.249768
1014	0.365637
1026	0.532076
1038	0.592099
1050	0.570552
1062	0.406093
1074	0.169407
1086	0.103007
1098	0.0800312
1110	0.0701373
1122	0.0745346
1134	0.119387
1146	0.296929
1158	0.463807
1170	0.324192
1182	0.186336
1194	0.142583
1206	0.125873
1218	0.138406
1230	0.177212
1242	0.297808
1254	0.707199
1266	1.09933
1278	0.783163
1290	0.511188
1302	0.370474
1314	0.266038
1326	0.191173
1338	0.151048
1350	0.117189
1362	0.136977
1374	0.209422
1386	0.228331
1398	0.167758
1410	0.138626
1422	0.16457
1434	0.324632
1446	0.36157
1458	0.364318
1470	0.423572
1482	0.472272
1494	0.493599
1506	0.184028
1518	0.0690379
1530	0.0526579
1542	0.0602433
1554	0.0613426
1566	0.0976205
1578	0.2623
1590	0.529217
1602	0.678616
1614	0.465566
1626	0.156215
1638	0.0545268
1650	0.0329799
1662	0.0224263
1674	0.0228661
1686	0.0247349
1698	0.0245151
1710	0.0191283
1722	0.0252846
1734	0.0301216
1746	0.0223164
1758	0.0187985
1770	0.0151708
1782	0.011543
1794	0.00934431
1806	0.00901451
1818	0.0120926
1830	0.0155006
1842	0.0174793
1854	0.0125324
1866	0.0101138
1878	0.00978404
1890	0.0125324
1902	0.0127522
1914	0.0186886
1926	0.0195681
1938	0.0123125
1950	0.00824497
1962	0.00868471
1974	0.00923437
1986	0.0119827
1998	0.0140714
2010	0.013082
2022	0.0139615
2034	0.014841
2046	0.0168197
2058	0.0156105
2070	0.014731
2082	0.0159403
2094	0.0144012
2106	0.0104436
2118	0.00879464
2130	0.00758538
2142	0.00725558
2154	0.00857477
2166	0.00923437
2178	0.00945424
2190	0.0102238
2202	0.0100039
2214	0.00890457
2226	0.00659598
2238	0.00428739
2250	0.00373772
2262	0.00351786
2274	0.00318806
2286	0.00483705
2298	0.00879464
2310	0.0133019
2322	0.0167098
2334	0.0139615
2346	0.00835491
2358	0.0144012
2370	0.00307812
2382	0.00450725
2394	0.00659598
2406	0.00681585
2418	0.00725558
2430	0.00747544
2442	0.00615625
2454	0.00582645
2466	0.00527678
2478	0.00571652
2490	0.00648605
2502	0.00703571
2514	0.00736551
2526	0.00857477
2538	0.00857477
2550	0.00890457
2562	0.00901451
2574	0.00824497
2586	0.00670591
2598	0.00648605
2610	0.00681585
2622	0.00615625
2634	0.00648605
2646	0.00571652
2658	0.00637611
2670	0.00758538
2682	0.00670591
2694	0.00648605
2706	0.00758538
2718	0.00945424
2730	0.0116529
2742	0.0135218
2754	0.0141814
2766	0.0167098
2778	0.0190184
2790	0.0235257
2802	0.0306713
2814	0.0424341
2826	0.0713465
2838	0.169077
2850	0.224703
2862	0.161711
2874	0.183698
2886	0.227781
2898	0.220636
2910	0.231189
2922	0.264609
2934	0.281978
2946	0.352445
2958	0.34453
2970	0.209312
2982	0.126093
2994	0.1306
3006	0.233937
3018	0.177432
3030	0.108174
3042	0.128622
3054	0.140055
3066	0.134338
3078	0.120816
3090	0.0933331
3102	0.0530976
3114	0.0348488
3126	0.0198979
3138	0.013082
3150	0.00978404
3162	0.00879464
3174	0.00725558
3186	0.00703571
3198	0.00703571
3210	0.00659598
3222	0.00692578
3234	0.00725558
3246	0.00769531
3258	0.00714565
3270	0.00582645
3282	0.00527678
3294	0.00582645
3306	0.00626618
3318	0.00450725
3330	0.00340792
3342	0.00439732
3354	0.00417745
3366	0.00461719
3378	0.00571652
3390	0.00758538
3402	0.00406752
3414	0.00637611
3426	0.00560658
3438	0.00549665
3450	0.00637611
3462	0.00714565
3474	0.00670591
3486	0.00516685
3498	0.00571652
3510	0.00626618
3522	0.00549665
3534	0.00505692
3546	0.00516685
3558	0.00527678
3570	0.00560658
3582	0.00703571
3594	0.00725558
3606	0.0113231
3618	0.0178091
3630	0.0297918
3642	0.0638711
3654	0.0876166
3666	0.0724458
3678	0.0484805
3690	0.0306713
3702	0.0145112
3714	0.00934431
3726	0.00692578
3738	0.00615625
3750	0.00274833
3762	0.00307812
3774	0.00384766
3786	0.00461719
3798	0.00450725
3810	0.00329799
3822	0.00307812
3834	0.00450725
3846	0.00516685
3858	0.00472712
3870	0.00384766
3882	0.00494699
3894	0.00736551
3906	0.00571652
3918	0.00318806
3930	0.00494699
3942	0.00703571
3954	0.0100039
3966	0.00582645
