Infrared Spectrum: Ethyl 2-bromodecanoate
Formula: C 12 H 23 Br O 2
CAS: 6974-85-2
Origin: Sadtler Research Labs Under US-EPA Contract
1/CM	ABSORBANCE
450	0.00230236
462	0.00411135
474	0.015212
486	0.0106895
498	0.00583812
510	0.012334
522	0.0051803
534	0.00312463
546	0.0101961
558	0.00444026
570	0.0082227
582	0.00550921
594	0.0149653
606	0.0146364
618	0.00863383
630	0.00139786
642	0.0115118
654	0.0124985
666	0.0228591
678	0.0342887
690	0.0221191
702	0.014472
714	0.0222835
726	0.0212968
738	0.0179255
750	0.0181722
762	0.0147186
774	0.013403
786	0.0198989
798	0.0135675
810	0.0115118
822	0.00962056
834	0.00929165
846	0.0171854
858	0.0290261
870	0.0231058
882	0.0131563
894	0.0118407
906	0.0135675
918	0.0161987
930	0.0161165
942	0.0180077
954	0.0165276
966	0.0131563
978	0.0130741
990	0.0179255
1002	0.0305062
1014	0.0641371
1026	0.125478
1038	0.153271
1050	0.133537
1062	0.092012
1074	0.067755
1086	0.0678373
1098	0.0978501
1110	0.118242
1122	0.143568
1134	0.202278
1146	0.421167
1158	0.36813
1170	0.247914
1182	0.205732
1194	0.190684
1206	0.199318
1218	0.205074
1230	0.209679
1242	0.242405
1254	0.320356
1266	0.33894
1278	0.240432
1290	0.174568
1302	0.155409
1314	0.125232
1326	0.0962056
1338	0.0986724
1350	0.0951366
1362	0.0762244
1374	0.131317
1386	0.0781979
1398	0.0466227
1410	0.0332197
1422	0.0307529
1434	0.0503229
1446	0.0825559
1458	0.107635
1470	0.110184
1482	0.0517208
1494	0.0221191
1506	0.0128274
1518	0.00863383
1530	0.00756488
1542	0.00583812
1554	0.00501585
1566	0.00476917
1578	0.00476917
1590	0.00361799
1602	0.00444026
1614	0.00411135
1626	0.00345353
1638	0.00411135
1650	0.0042758
1662	0.00493362
1674	0.00682484
1686	0.0102784
1698	0.0179255
1710	0.035851
1722	0.0589568
1734	0.126136
1746	0.389263
1758	0.624267
1770	0.238047
1782	0.097439
1794	0.0448137
1806	0.0222835
1818	0.0129096
1830	0.00756488
1842	0.00534475
1854	0.00468694
1866	0.00476917
1878	0.00468694
1890	0.00501585
1902	0.00493362
1914	0.00378244
1926	0.00353576
1938	0.00287794
1950	0.00296017
1962	0.00254904
1974	0.00296017
1986	0.00296017
1998	0.00378244
2010	0.00435803
2022	0.0039469
2034	0.00361799
2046	0.00402912
2058	0.00419358
2070	0.00254904
2082	0.00320685
2094	0.00452248
2106	0.00411135
2118	0.00411135
2130	0.00361799
2142	0.00296017
2154	0.00320685
2166	0.00312463
2178	0.00296017
2190	0.00312463
2202	0.0030424
2214	0.00263126
2226	0.00296017
2238	0.00271349
2250	0.0030424
2262	0.00296017
2274	0.00287794
2286	0.00222013
2298	0.0012334
2310	0
2322	0.00230236
2334	0.00205567
2346	0.00189122
2358	0.00139786
2370	8.2227e-05
2382	0.000986724
2394	0.00312463
2406	0.00353576
2418	0.0030424
2430	0.00287794
2442	0.00246681
2454	0.00254904
2466	0.00296017
2478	0.00337131
2490	0.00230236
2502	0.00337131
2514	0.00296017
2526	0.00279572
2538	0.00246681
2550	0.00180899
2562	0.00180899
2574	0.00106895
2586	0.00156231
2598	0.00230236
2610	0.00345353
2622	0.0030424
2634	0.00345353
2646	0.00386467
2658	0.00542698
2670	0.00575589
2682	0.00567366
2694	0.00649593
2706	0.00690707
2718	0.00682484
2730	0.00846938
2742	0.0101139
2754	0.0104428
2766	0.0107717
2778	0.0132385
2790	0.015212
2802	0.0201456
2814	0.0250792
2826	0.0356043
2838	0.0511452
2850	0.10155
2862	0.286808
2874	0.281792
2886	0.213955
2898	0.181311
2910	0.264853
2922	0.45118
2934	0.82227
2946	0.623034
2958	0.38696
2970	0.436625
2982	0.245694
2994	0.195125
3006	0.11002
3018	0.0620814
3030	0.0370844
3042	0.0251615
3054	0.0175144
3066	0.0133208
3078	0.0117585
3090	0.0109362
3102	0.00962056
3114	0.00953833
3126	0.0101961
3138	0.00814047
3150	0.00871606
3162	0.00978501
3174	0.00781156
3186	0.00781156
3198	0.00781156
3210	0.00715375
3222	0.00674261
3234	0.00690707
3246	0.00657816
3258	0.00682484
3270	0.00550921
3282	0.00320685
3294	0.0039469
3306	0.00345353
3318	0.00271349
3330	0.00254904
3342	0.00238458
3354	0.00106895
3366	0.00115118
3378	0.00361799
3390	0.00115118
3402	0.00164454
3414	0.00287794
3426	0.00164454
3438	0.00131563
3450	0.00361799
3462	0.0021379
3474	0.0039469
3486	0.00575589
3498	0.00493362
3510	0.00328908
3522	0.00197345
3534	0.00197345
3546	0.00189122
3558	0.000986724
3570	0.0060848
3582	0.00698929
3594	0.00583812
3606	0.0060848
3618	0.00592034
3630	0.00402912
3642	0.0051803
3654	0.00419358
3666	0.00682484
3678	0.00402912
3690	0.00690707
3702	0.00468694
3714	0.00468694
3726	0.00435803
3738	0.00460471
3750	0.00690707
3762	0.0060848
3774	0.00682484
3786	0.00682484
3798	0.00583812
3810	0.00542698
3822	0.00526253
3834	0.00468694
3846	0.00666039
3858	0.00764711
3870	0.00666039
3882	0.00493362
3894	0.00682484
3906	0.00879829
3918	0.00805825
3930	0.0100317
3942	0.00542698
3954	0.0105251
3966	0.00616702
