Infrared Spectrum: Phenol, 3-ethyl-5-methyl-
Formula: C 9 H 12 O
CAS: 698-71-5
Origin: Sadtler Research Labs Under US-EPA Contract
1/CM	ABSORBANCE
450	0.0121601
462	0.00786474
474	0.0318219
486	0.0385977
498	0.0424091
510	0.0220213
522	0.0175444
534	0.0243807
546	0.0199038
558	0.0163345
570	0.0261351
582	0.0182099
594	0.0128861
606	0.014096
618	0.0151245
630	0.00937719
642	0.00853022
654	0.00459785
666	0.0137935
678	0.0735656
690	0.139932
702	0.0506973
714	0.013854
726	0.00750175
738	0.00284341
750	0.00629179
762	0.00949819
774	0.00840922
786	0.0127046
798	0.0190569
810	0.0355728
822	0.0886901
834	0.143138
846	0.175868
858	0.108291
870	0.0597115
882	0.0392632
894	0.0667293
906	0.07411
918	0.0277081
930	0.0204483
942	0.0434376
954	0.129526
966	0.133035
978	0.0632809
990	0.0544482
1002	0.0556582
1014	0.0634019
1026	0.0620105
1038	0.0404732
1050	0.0436796
1062	0.0580176
1074	0.045313
1086	0.0309145
1098	0.0332134
1110	0.0416226
1122	0.0739286
1134	0.205451
1146	0.501891
1158	0.48961
1170	0.258871
1182	0.285914
1194	0.278412
1206	0.0997612
1218	0.0571706
1230	0.0734446
1242	0.119544
1254	0.12021
1266	0.118818
1278	0.183974
1290	0.285672
1302	0.243141
1314	0.169636
1326	0.157476
1338	0.135516
1350	0.0546902
1362	0.0203273
1374	0.0249857
1386	0.0360568
1398	0.0409571
1410	0.0492454
1422	0.0680603
1434	0.125957
1446	0.233099
1458	0.242355
1470	0.17127
1482	0.141142
1494	0.115188
1506	0.0899
1518	0.0589251
1530	0.0526938
1542	0.059167
1554	0.0603165
1566	0.0927434
1578	0.21628
1590	0.398319
1602	0.543575
1614	0.578603
1626	0.277928
1638	0.0696937
1650	0.0344839
1662	0.0241992
1674	0.0199643
1686	0.0206298
1698	0.0214163
1710	0.0254697
1722	0.0258326
1734	0.0193594
1746	0.0107081
1758	0.0061708
1770	0.00435586
1782	0.00332739
1794	0.00417436
1806	0.00272241
1818	0.00217793
1830	0.00241992
1842	0.00241992
1854	0.00266191
1866	0.00266191
1878	0.00223843
1890	0.00223843
1902	0.00223843
1914	0.00223843
1926	0.00133096
1938	0.00120996
1950	0.00127046
1962	0.00108896
1974	0.000665478
1986	0.000241992
1998	0.000241992
2010	0.000181494
2022	0.000725976
2034	0.00163345
2046	0.00133096
2058	0.00157295
2070	0.000665478
2082	0.000181494
2094	0.00157295
2106	0.00387187
2118	0.00429536
2130	0.00217793
2142	0.00169394
2154	0.00157295
2166	0.00284341
2178	0.00229892
2190	0.00217793
2202	0.00102847
2214	0.00114946
2226	0.00120996
2238	0.00211743
2250	0.00163345
2262	0.00187544
2274	0.00266191
2286	0.00350888
2298	0.00556582
2310	0.00859072
2322	0.00998217
2334	0.0127046
2346	0.0114341
2358	0.0136725
2370	0.0130676
2382	0.00701777
2394	0.00254092
2406	0.00163345
2418	0.00223843
2430	0.00387187
2442	0.00701777
2454	0.00798574
2466	0.00641279
2478	0.00514233
2490	0.00344839
2502	0.00205693
2514	0.00151245
2526	0.00114946
2538	0
2550	0.00102847
2562	0.000120996
2574	0.000181494
2586	0.00060498
2598	0.00169394
2610	0.00211743
2622	0.00151245
2634	0.00151245
2646	0.000423486
2658	6.0498e-05
2670	0
2682	0
2694	6.0498e-05
2706	0.000665478
2718	0.00211743
2730	0.00562631
2742	0.0116761
2754	0.0104662
2766	0.00750175
2778	0.00877221
2790	0.0108896
2802	0.0120996
2814	0.0136121
2826	0.0197223
2838	0.0316405
2850	0.0499108
2862	0.0940744
2874	0.153604
2886	0.181434
2898	0.165462
2910	0.169818
2922	0.21985
2934	0.317735
2946	0.316102
2958	0.226444
2970	0.380048
2982	0.353671
2994	0.136362
3006	0.136121
3018	0.169213
3030	0.188512
3042	0.139085
3054	0.0821563
3066	0.0513628
3078	0.0323664
3090	0.0214163
3102	0.016032
3114	0.0115551
3126	0.00774374
3138	0.0059893
3150	0.00623129
3162	0.00550532
3174	0.00544482
3186	0.0029039
3198	0.00120996
3210	0.00187544
3222	0.000423486
3234	0.00163345
3246	0.00260141
3258	0.00108896
3270	0.00120996
3282	0.00090747
3294	0.00151245
3306	0.000967968
3318	0.00139145
3330	0.00350888
3342	0.00502133
3354	0.00453735
3366	0.00362988
3378	0.00381137
3390	0.00362988
3402	0.00254092
3414	0.0030249
3426	0.00362988
3438	0.00320639
3450	0.00266191
3462	0.00338789
3474	0.00060498
3486	0
3498	0.000181494
3510	0.00223843
3522	0.00163345
3534	0.0029644
3546	0.00272241
3558	0.00490034
3570	0.00375088
3582	0.00272241
3594	0.00441635
3606	0.00508183
3618	0.00859072
3630	0.0339394
3642	0.188996
3654	0.327415
3666	0.112768
3678	0.0133701
3690	0.00447685
3702	0.00254092
3714	0.00266191
3726	0.0029644
3738	0.0030249
3750	0.00453735
3762	0.00387187
3774	0.0030249
3786	0.00381137
3798	0.00387187
3810	0.00477934
3822	0.00574731
3834	0.00738076
3846	0.00707827
3858	0.00695727
3870	0.00846972
3882	0.00756225
3894	0.00810673
3906	0.00756225
3918	0.00780424
3930	0.00738076
3942	0.00967968
3954	0.00181494
3966	0.00254092
