Infrared Spectrum: Benzeneethanol, 4-methyl-
Formula: C 9 H 12 O
CAS: 699-02-5
Origin: Sadtler Research Labs Under US-EPA Contract
1/CM	ABSORBANCE
450	0.0387443
462	0.0433864
474	0.0600506
486	0.0671329
498	0.0617766
510	0.0390418
522	0.0288053
534	0.0433269
546	0.0823092
558	0.0891535
570	0.0369588
582	0.0136289
594	0.0101175
606	0.00613005
618	0.00565393
630	0.00434459
642	0.00458265
654	0.00184497
666	5.9515e-05
678	0.00166642
690	0.00333284
702	0.00815355
714	0.0162476
726	0.0165452
738	0.0133909
750	0.0223181
762	0.0304122
774	0.0386848
786	0.0946289
798	0.218122
810	0.218599
822	0.0848684
834	0.0358875
846	0.0285672
858	0.0230323
870	0.0196995
882	0.0127957
894	0.0104151
906	0.0103556
918	0.017795
930	0.0329118
942	0.0381491
954	0.029579
966	0.0276745
978	0.0364827
990	0.0559441
1002	0.10427
1014	0.163369
1026	0.271507
1038	0.491951
1050	0.581462
1062	0.398453
1074	0.176224
1086	0.0801667
1098	0.0677876
1110	0.0803453
1122	0.075584
1134	0.0568368
1146	0.0411249
1158	0.0379111
1170	0.0448743
1182	0.0482072
1194	0.0579081
1206	0.0699896
1218	0.0631454
1230	0.0501116
1242	0.0497545
1254	0.045648
1266	0.0464217
1278	0.0427913
1290	0.0412439
1302	0.0437435
1314	0.0488618
1326	0.0561226
1338	0.065288
1350	0.0657046
1362	0.065407
1374	0.103675
1386	0.153668
1398	0.110281
1410	0.0724893
1422	0.0708229
1434	0.0716561
1446	0.0658831
1458	0.0511234
1470	0.0561226
1482	0.0563012
1494	0.0599911
1506	0.140515
1518	0.259842
1530	0.0905223
1542	0.0200566
1554	0.0122601
1566	0.0102961
1578	0.0106532
1590	0.0102366
1602	0.010058
1614	0.0123196
1626	0.0167832
1638	0.015712
1650	0.00874871
1662	0.00458265
1674	0.00267818
1686	0.00095224
1698	0.00113079
1710	0.00190448
1722	0.00208303
1734	0.00303527
1746	0.00303527
1758	0.00428508
1770	0.00565393
1782	0.0131528
1794	0.0141051
1806	0.00380896
1818	0.00249963
1830	0.00208303
1842	0.00291624
1854	0.00488023
1866	0.00672519
1878	0.015831
1890	0.0263651
1902	0.0230323
1914	0.011784
1926	0.00654665
1938	0.00440411
1950	0.00351139
1962	0.00386848
1974	0.00345187
1986	0.00392799
1998	0.00386848
2010	0.00380896
2022	0.00368993
2034	0.00452314
2046	0.00547538
2058	0.0059515
2070	0.00547538
2082	0.00470169
2094	0.00422557
2106	0.00309478
2118	0.0023806
2130	0.00142836
2142	0.00142836
2154	0.000892725
2166	0.00035709
2178	0.000178545
2190	0.000416605
2202	0.00047612
2214	0.000654665
2226	0.00011903
2238	0.00059515
2250	0.000654665
2262	0.00047612
2274	0.000892725
2286	0.00178545
2298	0.00303527
2310	0.00398751
2322	0.00208303
2334	0.000178545
2346	0.00249963
2358	0.00011903
2370	0.00011903
2382	0.00249963
2394	0.00261866
2406	0.00261866
2418	0.00279721
2430	0.00297575
2442	0.00267818
2454	0.00244012
2466	0.00220206
2478	0.00232109
2490	0.00202351
2502	0.00190448
2514	0.00220206
2526	0.00232109
2538	0.00232109
2550	0.00142836
2562	0.00202351
2574	0.00244012
2586	0.00446363
2598	0.00482071
2610	0.00398751
2622	0.00398751
2634	0.00523732
2646	0.00618956
2658	0.00618956
2670	0.00654665
2682	0.00737986
2694	0.00803453
2706	0.00892725
2718	0.0113079
2730	0.0160691
2742	0.023925
2754	0.021842
2766	0.0183306
2778	0.0182711
2790	0.019878
2802	0.0232704
2814	0.0283291
2826	0.0377325
2838	0.0564202
2850	0.0933195
2862	0.163488
2874	0.295551
2886	0.341973
2898	0.254962
2910	0.263235
2922	0.398155
2934	0.529267
2946	0.465348
2958	0.347151
2970	0.260319
2982	0.161107
2994	0.153727
3006	0.186818
3018	0.253058
3030	0.308288
3042	0.182294
3054	0.172832
3066	0.134861
3078	0.0782622
3090	0.0583842
3102	0.0448148
3114	0.0260081
3126	0.0166047
3138	0.0156524
3150	0.00892725
3162	0.00285672
3174	0.00172594
3186	0.00107127
3198	0.00047612
3210	0.00023806
3222	0.00083321
3234	0.00083321
3246	0.000297575
3258	0.00083321
3270	0.00035709
3282	0.00047612
3294	0.000654665
3306	0.000654665
3318	0.00178545
3330	0.00255915
3342	0.0023806
3354	0.00130933
3366	0.001964
3378	0.00244012
3390	0.00113079
3402	0.00226157
3414	0.00214254
3426	0.00208303
3438	0.00220206
3450	0.00190448
3462	0.00285672
3474	0.00279721
3486	0.00303527
3498	0.0031543
3510	0.00291624
3522	0.00208303
3534	0.00244012
3546	0.00273769
3558	0.00470169
3570	0.00440411
3582	0.00517781
3594	0.00583247
3606	0.00928434
3618	0.0285672
3630	0.0773695
3642	0.0535635
3654	0.0596935
3666	0.087487
3678	0.0670734
3690	0.0243416
3702	0.0124386
3714	0.00767743
3726	0.00410653
3738	0.00428508
3750	0.00244012
3762	0.00279721
3774	0.00232109
3786	0.00273769
3798	0.00214254
3810	0.00244012
3822	0.00244012
3834	0.00166642
3846	0.00309478
3858	0.00404702
3870	0.00285672
3882	0.00255915
3894	0.00249963
3906	0.00386848
3918	0.001964
3930	0.0035709
3942	0.00339236
3954	0.000416605
3966	0.000892725
