Infrared Spectrum: Benzenesulfonamide, 4-methyl-
Formula: C 7 H 9 N O 2 S
CAS: 70-55-3
Origin: Sadtler Research Labs Under US-EPA Contract
1/CM	ABSORBANCE
450	0
462	0.0414505
474	0.0316199
486	0.0424719
498	0.0408973
510	0.0400461
522	0.0577073
534	0.102988
546	0.191421
558	0.188485
570	0.0777516
582	0.0572817
594	0.0532814
606	0.0460467
618	0.0528558
630	0.0537495
642	0.0850289
654	0.184399
666	0.125501
678	0.0702191
690	0.0566434
702	0.0570689
714	0.0551113
726	0.053409
738	0.0501321
750	0.0489405
762	0.0486001
774	0.0510258
786	0.0594096
798	0.0770707
810	0.108776
822	0.0983492
834	0.0971151
846	0.145417
858	0.161291
870	0.101158
882	0.058218
894	0.0438763
906	0.0367267
918	0.0323008
930	0.030258
942	0.0276195
954	0.02613
966	0.0257044
978	0.0248533
990	0.0243
1002	0.0248533
1014	0.0300027
1026	0.0311943
1038	0.0269386
1050	0.0270663
1062	0.0279599
1074	0.0335349
1086	0.0498768
1098	0.0749003
1110	0.0565157
1122	0.0368544
1134	0.0323008
1146	0.0413228
1158	0.0997111
1170	0.379651
1182	0.316667
1194	0.0833266
1206	0.0480043
1218	0.0407696
1230	0.0325561
1242	0.0288536
1254	0.0286409
1266	0.0312794
1278	0.033237
1290	0.032854
1302	0.035067
1314	0.0346414
1326	0.0334072
1338	0.0435358
1350	0.0720064
1362	0.138821
1374	0.261811
1386	0.260662
1398	0.125969
1410	0.0624737
1422	0.0445146
1434	0.0346414
1446	0.0321305
1458	0.032088
1470	0.0321731
1482	0.0345988
1494	0.0461743
1506	0.0463446
1518	0.0382587
1530	0.0432379
1542	0.0608991
1554	0.0703042
1566	0.0530686
1578	0.0375353
1590	0.0382162
1602	0.0454509
1614	0.0367267
1626	0.0281727
1638	0.0262151
1650	0.0258747
1662	0.0232361
1674	0.0229382
1686	0.0221722
1698	0.0222148
1710	0.0213211
1722	0.0211508
1734	0.0217041
1746	0.0221296
1758	0.0230233
1770	0.0222999
1782	0.0221296
1794	0.0244277
1806	0.0224275
1818	0.0206401
1830	0.0209806
1842	0.0202997
1854	0.0205125
1866	0.0209806
1878	0.0212785
1890	0.0223424
1902	0.0237042
1914	0.0248107
1926	0.0232787
1938	0.0214487
1950	0.0208529
1962	0.0210232
1974	0.0210657
1986	0.0203422
1998	0.020172
2010	0.0204699
2022	0.020555
2034	0.0203848
2046	0.0204274
2058	0.0204699
2070	0.0204274
2082	0.0205125
2094	0.0206401
2106	0.0208529
2118	0.0211508
2130	0.0205976
2142	0.0204699
2154	0.020555
2166	0.020555
2178	0.0205976
2190	0.0207678
2202	0.0208104
2214	0.0205125
2226	0.0206827
2238	0.0205976
2250	0.0208955
2262	0.0216615
2274	0.0220445
2286	0.0214487
2298	0.0215764
2310	0.0216615
2322	0.0214487
2334	0.0215338
2346	0.0213636
2358	0.0221296
2370	0.0217466
2382	0.0214487
2394	0.0215764
2406	0.021619
2418	0.0210232
2430	0.0208529
2442	0.0208955
2454	0.0209806
2466	0.0211083
2478	0.0211934
2490	0.0210232
2502	0.0211083
2514	0.0212359
2526	0.0215338
2538	0.0223424
2550	0.0222999
2562	0.0220871
2574	0.0219169
2586	0.0217892
2598	0.0221722
2610	0.0216615
2622	0.0214062
2634	0.0208955
2646	0.0206827
2658	0.0207678
2670	0.0211083
2682	0.0208104
2694	0.0207678
2706	0.0208955
2718	0.0202997
2730	0.0201295
2742	0.0209806
2754	0.0210657
2766	0.0202997
2778	0.0208955
2790	0.0210657
2802	0.0213636
2814	0.021619
2826	0.0217041
2838	0.0224275
2850	0.0238745
2862	0.0265981
2874	0.0320454
2886	0.0331519
2898	0.0310241
2910	0.0312368
2922	0.0360883
2934	0.0488129
2946	0.0436635
2958	0.0321305
2970	0.0296622
2982	0.0294069
2994	0.0309389
3006	0.0325987
3018	0.0343861
3030	0.0422165
3042	0.0482596
3054	0.0416633
3066	0.0393652
3078	0.0356202
3090	0.0295346
3102	0.0271088
3114	0.0243852
3126	0.0228531
3138	0.022002
3150	0.0218317
3162	0.0214062
3174	0.0217041
3186	0.0213211
3198	0.0213211
3210	0.0213211
3222	0.0216615
3234	0.0222999
3246	0.0222999
3258	0.0220445
3270	0.0223424
3282	0.0224701
3294	0.0229808
3306	0.0225552
3318	0.0228957
3330	0.0234915
3342	0.0269386
3354	0.039578
3366	0.0631971
3378	0.0639206
3390	0.0417484
3402	0.0287685
3414	0.0246405
3426	0.0251086
3438	0.0272365
3450	0.0351946
3462	0.0457913
3474	0.0516216
3486	0.0457913
3498	0.0348116
3510	0.0271088
3522	0.0244277
3534	0.0221296
3546	0.0220445
3558	0.022002
3570	0.0220871
3582	0.0222148
3594	0.0220445
3606	0.0218317
3618	0.0230659
3630	0.0225978
3642	0.0214487
3654	0.0229382
3666	0.0214487
3678	0.0222148
3690	0.021619
3702	0.0216615
3714	0.0221722
3726	0.0222573
3738	0.0222148
3750	0.0213211
3762	0.020938
3774	0.0205125
3786	0.0211508
3798	0.0210657
3810	0.0207678
3822	0.0214487
3834	0.0214062
3846	0.0212359
3858	0.0219594
3870	0.0224701
3882	0.0214913
3894	0.0219169
3906	0.0217892
3918	0.0217892
3930	0.0212785
3942	0.0209806
3954	0.0216615
3966	0.0218743
