Infrared Spectrum: Benzene, 1-isocyanato-2-methoxy-
Formula: C 8 H 7 N O 2
CAS: 700-87-8
Origin: Sadtler Research Labs Under US-EPA Contract
1/CM	ABSORBANCE
450	0
462	0.00737202
474	0.00307167
486	0.00491468
498	0.00638908
510	0.00896929
522	0.0176928
534	0.0125324
546	0.00835496
558	0.012901
570	0.0237133
582	0.0256792
594	0.0228533
606	0.0206417
618	0.0251877
630	0.0297338
642	0.0298567
654	0.0283823
666	0.0222389
678	0.0185529
690	0.0213789
702	0.0169556
714	0.0111809
726	0.0289966
738	0.0992765
750	0.154198
762	0.0479181
774	0.0156041
786	0.012901
798	0.0144983
810	0.0242048
822	0.0218703
834	0.00884642
846	0.00651195
858	0.00626622
870	0.00368601
882	0.00344028
894	0.00393174
906	0.00344028
918	0.00737202
930	0.00946076
942	0.00319454
954	0.00270307
966	0.00393174
978	0.00651195
990	0.00823209
1002	0.0142526
1014	0.0324369
1026	0.0626622
1038	0.0867441
1050	0.0700342
1062	0.0213789
1074	0.0167099
1086	0.0475495
1098	0.100259
1110	0.0522185
1122	0.0269079
1134	0.0326826
1146	0.0244505
1158	0.0287509
1170	0.0315768
1182	0.0291195
1194	0.0281365
1206	0.0260478
1218	0.0342799
1230	0.064628
1242	0.19155
1254	0.193147
1266	0.0626622
1278	0.0539386
1290	0.0523413
1302	0.0624164
1314	0.0493925
1326	0.0176928
1338	0.0131468
1350	0.0141297
1362	0.0122867
1374	0.0137611
1386	0.0142526
1398	0.0178157
1410	0.0176928
1422	0.01757
1434	0.0337884
1446	0.0390717
1458	0.0566417
1470	0.103823
1482	0.0700342
1494	0.0465666
1506	0.107017
1518	0.194253
1530	0.132082
1542	0.0504983
1554	0.0215017
1566	0.014744
1578	0.0253106
1590	0.0455837
1602	0.074826
1614	0.0471809
1626	0.0246963
1638	0.0219932
1650	0.0222389
1662	0.0143754
1674	0.0111809
1686	0.00982936
1698	0.0117952
1710	0.0163413
1722	0.0183072
1734	0.0199045
1746	0.0178157
1758	0.0158498
1770	0.0119181
1782	0.00614335
1794	0.00491468
1806	0.00430034
1818	0.00356314
1830	0.00356314
1842	0.00331741
1854	0.00417748
1866	0.00331741
1878	0.00491468
1890	0.00602048
1902	0.00393174
1914	0.00442321
1926	0.00626622
1938	0.00393174
1950	0.00233447
1962	0.00282594
1974	0.00307167
1986	0.00380888
1998	0.00393174
2010	0.00319454
2022	0.00380888
2034	0.00479181
2046	0.00614335
2058	0.00798636
2070	0.00921502
2082	0.0100751
2094	0.00958363
2106	0.00872356
2118	0.00946076
2130	0.0131468
2142	0.0218703
2154	0.0399318
2166	0.0598362
2178	0.0636451
2190	0.0699113
2202	0.0849011
2214	0.114758
2226	0.266499
2238	0.604506
2250	0.801339
2262	1.16847
2274	1.05911
2286	0.499086
2298	0.271045
2310	0.163167
2322	0.147072
2334	0.14314
2346	0.138717
2358	0.159604
2370	0.1123
2382	0.061925
2394	0.0197816
2406	0.0124096
2418	0.0104437
2430	0.00712629
2442	0.00454608
2454	0.00393174
2466	0.00319454
2478	0.00245734
2490	0.00258021
2502	0.00245734
2514	0.00294881
2526	0.00393174
2538	0.00393174
2550	0.00466895
2562	0.00552901
2574	0.00466895
2586	0.00368601
2598	0.00356314
2610	0.00393174
2622	0.00368601
2634	0.00307167
2646	0.00294881
2658	0.00282594
2670	0.00307167
2682	0.00405461
2694	0.00430034
2706	0.00466895
2718	0.00430034
2730	0.00380888
2742	0.00356314
2754	0.00393174
2766	0.00356314
2778	0.00430034
2790	0.00417748
2802	0.00491468
2814	0.00552901
2826	0.00835496
2838	0.0191673
2850	0.0331741
2862	0.0232219
2874	0.0149898
2886	0.015727
2898	0.0215017
2910	0.0266621
2922	0.033297
2934	0.0355086
2946	0.0516041
2958	0.0577475
2970	0.0507441
2982	0.0292423
2994	0.0226075
3006	0.0298567
3018	0.0382116
3030	0.0213789
3042	0.0187987
3054	0.0202731
3066	0.0340342
3078	0.042512
3090	0.0325598
3102	0.0163413
3114	0.00970649
3126	0.00786349
3138	0.00651195
3150	0.00589762
3162	0.00614335
3174	0.00503755
3186	0.00528328
3198	0.00479181
3210	0.00442321
3222	0.00442321
3234	0.00503755
3246	0.00466895
3258	0.00503755
3270	0.00516041
3282	0.00565188
3294	0.00577475
3306	0.00638908
3318	0.00688055
3330	0.00847782
3342	0.00970649
3354	0.0106894
3366	0.0111809
3378	0.00933789
3390	0.00958363
3402	0.0106894
3414	0.0105666
3426	0.00896929
3438	0.00651195
3450	0.00528328
3462	0.00503755
3474	0.00479181
3486	0.00417748
3498	0.00479181
3510	0.00442321
3522	0.00442321
3534	0.00393174
3546	0.00294881
3558	0.00442321
3570	0.00282594
3582	0.00405461
3594	0.00479181
3606	0.00466895
3618	0.00417748
3630	0.00270307
3642	0.00737202
3654	0.00810922
3666	0.00823209
3678	0.00737202
3690	0.00933789
3702	0.00798636
3714	0.00442321
3726	0.00565188
3738	0.00688055
3750	0.00430034
3762	0.00540615
3774	0.00638908
3786	0.00823209
3798	0.00602048
3810	0.00638908
3822	0.00319454
3834	0.00479181
3846	0.00491468
3858	0.00344028
3870	0.00344028
3882	0.00491468
3894	0.00540615
3906	0.00516041
3918	0.00405461
3930	0.00442321
3942	0.00577475
3954	0.00491468
3966	0.00552901
