Infrared Spectrum: Pyridine, pentafluoro-
Formula: C 5 F 5 N
CAS: 700-16-3
Origin: Sadtler Research Labs Under US-EPA Contract
1/CM	ABSORBANCE
450	0
462	0.0160156
474	0.0193558
486	0.0346862
498	0.0337441
510	0.0217538
522	0.0155017
534	0.0387115
546	0.0266356
558	0.0140458
570	0.0169577
582	0.0119903
594	0.0145597
606	0.0363991
618	0.0192701
630	0.0110482
642	0.0275777
654	0.0186706
666	0.00933531
678	0.0249227
690	0.0237237
702	0.0218395
714	0.0262074
726	0.0247514
738	0.023895
750	0.0245801
762	0.0214969
774	0.0177285
786	0.0148166
798	0.0172146
810	0.0191845
822	0.0276633
834	0.0163582
846	0.0178998
858	0.0173859
870	0.0170434
882	0.0179855
894	0.0194414
906	0.0169577
918	0.0162726
930	0.018328
942	0.0188419
954	0.0267212
966	0.103374
978	0.241433
990	0.116049
1002	0.0348575
1014	0.0317743
1026	0.0321169
1038	0.0377694
1050	0.0417091
1062	0.0558405
1074	0.278175
1086	0.248199
1098	0.034258
1110	0.036913
1122	0.0195271
1134	0.0137032
1146	0.0155017
1158	0.0196983
1170	0.015673
1182	0.0136176
1194	0.0158443
1206	0.0127611
1218	0.0146453
1230	0.0178998
1242	0.0155017
1254	0.0178142
1266	0.0262074
1278	0.0318599
1290	0.044878
1302	0.0318599
1314	0.0201266
1326	0.0155017
1338	0.0189275
1350	0.0164438
1362	0.02124
1374	0.0244088
1386	0.0125898
1398	0.0182424
1410	0.0220964
1422	0.055241
1434	0.0469335
1446	0.0467622
1458	0.0491602
1470	0.0477043
1482	0.26156
1494	0.85645
1506	0.434135
1518	0.136004
1530	0.189275
1542	0.0995195
1554	0.0560975
1566	0.0375125
1578	0.0280059
1590	0.0256079
1602	0.0177285
1614	0.0231241
1626	0.0523291
1638	0.113651
1650	0.103288
1662	0.0266356
1674	0.0161013
1686	0.0188419
1698	0.0204692
1710	0.00950659
1722	0.0116477
1734	0.0191845
1746	0.0114764
1758	0.0143027
1770	0.0150735
1782	0.00727983
1794	0.011819
1806	0.00907837
1818	0.00770805
1830	0.0115621
1842	0.00890708
1854	0.0076224
1866	0.0111338
1878	0.0105343
1890	0.00839321
1902	0.0076224
1914	0.00779369
1926	0.0068516
1938	0.00787934
1950	0.00753676
1962	0.00642337
1974	0.00625209
1986	0.00710854
1998	0.0059095
2010	0.00573821
2022	0.00556692
2034	0.00565257
2046	0.00556692
2058	0.00599515
2070	0.00522435
2082	0.00608079
2094	0.00805063
2106	0.00565257
2118	0.00556692
2130	0.00548128
2142	0.00496741
2154	0.00453919
2166	0.00479612
2178	0.00505305
2190	0.00488176
2202	0.00488176
2214	0.00471047
2226	0.00274064
2238	0.00616644
2250	0.00488176
2262	0.00351144
2274	0.00428225
2286	0.00334016
2298	0.00205548
2310	0.00488176
2322	0.0076224
2334	0.00299757
2346	0.00676595
2358	0.00770805
2370	0.00334016
2382	0.00453919
2394	0.00411096
2406	0.00299757
2418	0.00471047
2430	0.0043679
2442	0.00256935
2454	0.0051387
2466	0.00565257
2478	0.00299757
2490	0.00582386
2502	0.00496741
2514	0.00334016
2526	0.00522435
2538	0.00616644
2550	0.00351144
2562	0.00745111
2574	0.0076224
2586	0.00616644
2598	0.0100205
2610	0.0059095
2622	0.00471047
2634	0.00616644
2646	0.0059095
2658	0.00573821
2670	0.00779369
2682	0.00539564
2694	0.00556692
2706	0.00813628
2718	0.00633773
2730	0.00411096
2742	0.00625209
2754	0.00633773
2766	0.00479612
2778	0.00702289
2790	0.00522435
2802	0.00488176
2814	0.00616644
2826	0.00710854
2838	0.00556692
2850	0.00556692
2862	0.00668031
2874	0.00530999
2886	0.00608079
2898	0.00565257
2910	0.00573821
2922	0.00719418
2934	0.0085645
2946	0.00642337
2958	0.00522435
2970	0.00693724
2982	0.00565257
2994	0.00471047
3006	0.00736547
3018	0.00659466
3030	0.00488176
3042	0.00839321
3054	0.00582386
3066	0.00445354
3078	0.00805063
3090	0.00668031
3102	0.00625209
3114	0.00933531
3126	0.00625209
3138	0.00642337
3150	0.00787934
3162	0.00770805
3174	0.00548128
3186	0.00813628
3198	0.00779369
3210	0.00582386
3222	0.0101061
3234	0.00702289
3246	0.00599515
3258	0.0113051
3270	0.00608079
3282	0.0059095
3294	0.00933531
3306	0.00770805
3318	0.00556692
3330	0.00976353
3342	0.00787934
3354	0.00582386
3366	0.0129324
3378	0.00745111
3390	0.00608079
3402	0.0116477
3414	0.00745111
3426	0.00796498
3438	0.0120759
3450	0.00916401
3462	0.00865014
3474	0.011819
3486	0.00787934
3498	0.00787934
3510	0.0134463
3522	0.00813628
3534	0.00830756
3546	0.0127611
3558	0.00753676
3570	0.00993482
3582	0.0127611
3594	0.0108769
3606	0.011819
3618	0.0125898
3630	0.015673
3642	0.0109626
3654	0.0149879
3666	0.0125898
3678	0.0138745
3690	0.0158443
3702	0.0136176
3714	0.0128467
3726	0.0127611
3738	0.0155874
3750	0.0165295
3762	0.0128467
3774	0.00950659
3786	0.00822192
3798	0.0143027
3810	0.0137032
3822	0.0102774
3834	0.00899273
3846	0.011819
3858	0.0131037
3870	0.0131893
3882	0.0125042
3894	0.00693724
3906	0.00967788
3918	0.0114764
3930	0.00976353
3942	0.00256935
3954	0.00137032
3966	0.00137032
