Infrared Spectrum: 5-Methyl-2-nitrophenol
Formula: C 7 H 7 N O 3
CAS: 700-38-9
Origin: Sadtler Research Labs Under US-EPA Contract
1/CM	ABSORBANCE
450	0.102217
462	0.0497362
474	0.0422703
486	0.040294
498	0.0282168
510	0.0385373
522	0.0539084
534	0.0712557
546	0.0716948
558	0
570	0.0166885
582	0.0317302
594	0.034475
606	0.0430389
618	0.0656562
630	0.0467718
642	0.0658758
654	0.0985941
666	0.130544
678	0.185221
690	0.182037
702	0.119894
714	0.0674129
726	0.0517125
738	0.0813566
750	0.131532
762	0.153491
774	0.0516027
786	0.0169081
798	0.0427095
810	0.114624
822	0.0738907
834	0.096508
846	0.180939
858	0.104413
870	0.0920065
882	0.0418311
894	0.0169081
906	0.0136143
918	0.0149318
930	0.0242643
942	0.0972766
954	0.125823
966	0.0421605
978	0.0322791
990	0.0427095
1002	0.0529202
1014	0.0532496
1026	0.0465522
1038	0.038208
1050	0.0317302
1062	0.0349142
1074	0.100131
1086	0.124395
1098	0.0400744
1110	0.024923
1122	0.0298637
1134	0.0345848
1146	0.0544573
1158	0.152612
1170	0.185111
1182	0.18566
1194	0.331575
1206	0.331685
1218	0.166556
1230	0.139218
1242	0.267895
1254	0.431047
1266	0.480784
1278	0.522176
1290	0.427973
1302	0.282717
1314	0.371759
1326	0.969253
1338	0.947404
1350	0.458166
1362	0.25472
1374	0.233969
1386	0.207289
1398	0.167434
1410	0.124505
1422	0.132301
1434	0.258014
1446	0.314447
1458	0.257135
1470	0.258892
1482	0.504499
1494	0.497582
1506	0.192577
1518	0.139547
1530	0.239019
1542	0.410845
1554	0.38724
1566	0.268224
1578	0.358694
1590	0.625271
1602	0.62055
1614	0.454543
1626	0.658758
1638	0.457617
1650	0.119674
1662	0.0462229
1674	0.0416115
1686	0.0454543
1698	0.0489677
1710	0.0271189
1722	0.0171277
1734	0.0236055
1746	0.0177865
1758	0.018555
1770	0.0210803
1782	0.0150416
1794	0.0139437
1806	0.0105401
1818	0.0117479
1830	0.0105401
1842	0.0047211
1854	0.00219586
1866	0.0047211
1878	0.00439172
1890	0.00867365
1902	0.0137241
1914	0.0122968
1926	0.00516027
1938	0.00450151
1950	0.00548965
1962	0.00340358
1974	0.00373296
1986	0.0030742
1998	0.00208607
2010	0.00186648
2022	0.00230565
2034	0.00142731
2046	0.000548965
2058	0.00109793
2070	0.000878344
2082	0.000768551
2094	0.00186648
2106	0.00230565
2118	0.0015371
2130	0.000219586
2142	0.00109793
2154	0.00274482
2166	0.00395255
2178	0.00252524
2190	0.00175669
2202	0.00219586
2214	0.00131752
2226	0.000658758
2238	0.000658758
2250	0.00164689
2262	0.0015371
2274	0.00296441
2286	0.00384275
2298	0.00461131
2310	0.00801489
2322	0.00988137
2334	0.00823447
2346	0.00801489
2358	0.00834427
2370	0.00757572
2382	0.00691696
2394	0.00680717
2406	0.0108695
2418	0.013285
2430	0.0110891
2442	0.0079051
2454	0.00494069
2466	0.00450151
2478	0.00417213
2490	0.00680717
2502	0.00669737
2514	0.00527006
2526	0.00581903
2538	0.00647779
2550	0.00768551
2562	0.00889323
2574	0.00900303
2586	0.00889323
2598	0.0108695
2610	0.0116381
2622	0.00966178
2634	0.00933241
2646	0.0094422
2658	0.0094422
2670	0.00823447
2682	0.00878344
2694	0.00900303
2706	0.00922261
2718	0.00999116
2730	0.0108695
2742	0.0137241
2754	0.0151514
2766	0.0129556
2778	0.0130654
2790	0.0135045
2802	0.0135045
2814	0.0147123
2826	0.0142731
2838	0.0166885
2850	0.019104
2862	0.0287658
2874	0.0428193
2886	0.041392
2898	0.0370002
2910	0.0380982
2922	0.0457837
2934	0.0802587
2946	0.0756474
2958	0.0454543
2970	0.0393059
2982	0.03711
2994	0.037659
3006	0.0367807
3018	0.0389765
3030	0.0349142
3042	0.0450151
3054	0.0576413
3066	0.0532496
3078	0.0384275
3090	0.0348044
3102	0.0233859
3114	0.0140535
3126	0.0147123
3138	0.0152612
3150	0.0172375
3162	0.0196529
3174	0.0252524
3186	0.0319498
3198	0.0458935
3210	0.0699381
3222	0.107158
3234	0.134167
3246	0.146903
3258	0.152832
3270	0.145586
3282	0.13274
3294	0.119455
3306	0.10628
3318	0.0954101
3330	0.0889323
3342	0.0827839
3354	0.0730123
3366	0.0654366
3378	0.0553357
3390	0.0489677
3402	0.0433682
3414	0.0379884
3426	0.0342554
3438	0.0299735
3450	0.0287658
3462	0.0274483
3474	0.0259111
3486	0.0237153
3498	0.0230565
3510	0.0205313
3522	0.0192138
3534	0.0182256
3546	0.0165787
3558	0.01592
3570	0.0137241
3582	0.012736
3594	0.0111989
3606	0.00900303
3618	0.00559944
3630	0.00505048
3642	0.00647779
3654	0.00537986
3666	0.00395255
3678	0.00230565
3690	0.0030742
3702	0.00274482
3714	0.00197627
3726	0.00285462
3738	0.00373296
3750	0.00263503
3762	0.00329379
3774	0.00395255
3786	0.00230565
3798	0.00647779
3810	0.00351338
3822	0.00494069
3834	0.00505048
3846	0.00439172
3858	0.00483089
3870	0.00516027
3882	0.00746592
3894	0.00636799
3906	0.00658758
3918	0.00933241
3930	0.00735613
3942	0.00669737
3954	0.0103205
3966	0.00878344
