Infrared Spectrum: Benzene, p-diisopropyl-,
Formula: C 12 H 18
CAS: 700-18-5
Origin: Sadtler Research Labs Under US-EPA Contract
1/CM	ABSORBANCE
450	0.0113425
462	0.00425344
474	0.0230001
486	0.00740414
498	0.013548
510	0.0195343
522	0.0181165
534	0.0248905
546	0.0390687
558	0.0716784
570	0.124295
582	0.1035
594	0.0384385
606	0.0239453
618	0.0165412
630	0.0144932
642	0.0144932
654	0.0152809
666	0.0119727
678	0.0144932
690	0.0132329
702	0.0148083
714	0.0127603
726	0.0105548
738	0.00929456
750	0.0118151
762	0.0115001
774	0.0124453
786	0.0168562
798	0.0241029
810	0.0411166
822	0.146508
834	0.203535
846	0.065062
858	0.0272536
870	0.0212672
882	0.0217398
894	0.0234727
906	0.0163836
918	0.017959
930	0.0204795
942	0.0228426
954	0.0318221
966	0.0193768
978	0.015911
990	0.0174864
1002	0.0252056
1014	0.0872744
1026	0.0530893
1038	0.0321371
1050	0.0749867
1062	0.0886922
1074	0.104446
1086	0.0486783
1098	0.0527742
1110	0.0756168
1122	0.0496235
1134	0.0370207
1146	0.0513564
1158	0.0346577
1170	0.0345002
1182	0.0352878
1194	0.0283563
1206	0.0234727
1218	0.0293015
1230	0.0340276
1242	0.0357604
1254	0.0611236
1266	0.130281
1278	0.0645893
1290	0.0589181
1302	0.0908977
1314	0.0631715
1326	0.0708907
1338	0.058603
1350	0.0782949
1362	0.113268
1374	0.114843
1386	0.106809
1398	0.0806579
1410	0.0732538
1422	0.0784524
1434	0.0604934
1446	0.0661647
1458	0.119096
1470	0.150761
1482	0.0831785
1494	0.0608085
1506	0.118939
1518	0.155014
1530	0.0568701
1542	0.0118151
1554	0.0105548
1566	0.0129179
1578	0.0154384
1590	0.0140206
1602	0.0281988
1614	0.0412742
1626	0.015596
1638	0.0141781
1650	0.0195343
1662	0.0231576
1674	0.0149658
1686	0.0206371
1698	0.0712058
1710	0.085384
1722	0.022685
1734	0.0137055
1746	0.0176439
1758	0.0148083
1770	0.0185891
1782	0.0200069
1794	0.0118151
1806	0.00771921
1818	0.00535619
1830	0.00378084
1842	0.00330823
1854	0.00425344
1866	0.00488358
1878	0.00834935
1890	0.0162261
1902	0.0171713
1914	0.00850689
1926	0.00519865
1938	0.00456851
1950	0.00346577
1962	0.00252056
1974	0.00189042
1986	0.00173288
1998	0.00189042
2010	0.00220549
2022	0.00189042
2034	0.00267809
2046	0.00220549
2058	0.00173288
2070	0.00189042
2082	0.00173288
2094	0.00126028
2106	0.00126028
2118	0.00110275
2130	0.00110275
2142	0.00110275
2154	0.00110275
2166	0.00141781
2178	0.00126028
2190	0.00094521
2202	0.00126028
2214	0.00157535
2226	0.00173288
2238	0.00236302
2250	0.0031507
2262	0.00378084
2274	0.00425344
2286	0.00299316
2298	0.00204795
2310	0.00141781
2322	0.00094521
2334	0.00157535
2346	0.00267809
2358	0.00094521
2370	0.00409591
2382	0.00488358
2394	0.00330823
2406	0.00283563
2418	0.00267809
2430	0.00236302
2442	0.00220549
2454	0.00267809
2466	0.00409591
2478	0.00425344
2490	0.0036233
2502	0.00393838
2514	0.00346577
2526	0.00346577
2538	0.00378084
2550	0.00378084
2562	0.00456851
2574	0.00567126
2586	0.00866442
2598	0.0118151
2610	0.0099247
2622	0.00693154
2634	0.00567126
2646	0.00519865
2658	0.00519865
2670	0.0063014
2682	0.00724661
2694	0.00708907
2706	0.00787675
2718	0.0124453
2730	0.0171713
2742	0.0151234
2754	0.0144932
2766	0.0166987
2778	0.0140206
2790	0.0140206
2802	0.0207946
2814	0.0285138
2826	0.0310344
2838	0.0313495
2850	0.0485208
2862	0.0910552
2874	0.240241
2886	0.370522
2898	0.313022
2910	0.318378
2922	0.290179
2934	0.364536
2946	0.464256
2958	0.583825
2970	1.57535
2982	0.633133
2994	0.205898
3006	0.132487
3018	0.165412
3030	0.187467
3042	0.105706
3054	0.107911
3066	0.092473
3078	0.0682127
3090	0.0678976
3102	0.0505687
3114	0.0302467
3126	0.0261508
3138	0.0215823
3150	0.0148083
3162	0.0132329
3174	0.0140206
3186	0.015596
3198	0.015596
3210	0.0137055
3222	0.0119727
3234	0.00897949
3246	0.0063014
3258	0.00519865
3270	0.00409591
3282	0.00346577
3294	0.00330823
3306	0.00346577
3318	0.00393838
3330	0.00409591
3342	0.00330823
3354	0.00299316
3366	0.0036233
3378	0.0036233
3390	0.00504112
3402	0.00519865
3414	0.00456851
3426	0.00425344
3438	0.00393838
3450	0.0036233
3462	0.0031507
3474	0.00330823
3486	0.00330823
3498	0.00220549
3510	0.0031507
3522	0.0031507
3534	0.00267809
3546	0.00204795
3558	0.00220549
3570	0.00330823
3582	0.0036233
3594	0.00252056
3606	0.00220549
3618	0.00378084
3630	0.00598633
3642	0.006774
3654	0.00771921
3666	0.00614386
3678	0.0036233
3690	0.00283563
3702	0.00409591
3714	0.00456851
3726	0.00441098
3738	0.00378084
3750	0.00346577
3762	0.00378084
3774	0.00346577
3786	0.0031507
3798	0.00283563
3810	0.00598633
3822	0.00252056
3834	0.00441098
3846	0.00519865
3858	0.00456851
3870	0.00472605
3882	0.00425344
3894	0.00488358
3906	0.00488358
3918	0.00441098
3930	0.00472605
3942	0.00441098
3954	0.0036233
3966	0.00582879
