Infrared Spectrum: 2,3,5,6-Tetrafluoroaniline
Formula: C 6 H 3 F 4 N
CAS: 700-17-4
Origin: Sadtler Research Labs Under US-EPA Contract
1/CM	ABSORBANCE
450	0.00241523
462	0.0116289
474	0.00474101
486	0.0137758
498	0.017175
510	0.0144019
522	0.0197691
534	0
546	0.0187851
558	0.0220949
570	0.0201269
582	0.0121656
594	0.0254047
606	0.0127918
618	0.0270148
630	0.0173539
642	0.0307718
654	0.0316664
666	0.0400749
678	0.0356917
690	0.0252257
702	0.0534929
714	0.0910632
726	0.0900792
738	0.0477679
750	0.0436531
762	0.0347972
774	0.0274621
786	0.0275515
798	0.0641378
810	0.112621
822	0.0546558
834	0.0234367
846	0.0195902
858	0.0152965
870	0.0587706
882	0.157795
894	0.209052
906	0.126665
918	0.0419535
930	0.0213793
942	0.0315769
954	0.0367652
966	0.0339921
978	0.0183379
990	0.0118972
1002	0.0117183
1014	0.0167277
1026	0.0213793
1038	0.0239734
1050	0.0271043
1062	0.0318453
1074	0.106628
1086	0.252436
1098	0.195097
1110	0.104034
1122	0.0756772
1134	0.0252257
1146	0.0330976
1158	0.117452
1170	0.198675
1182	0.223454
1194	0.101171
1206	0.0391804
1218	0.042848
1230	0.0154754
1242	0.0122551
1254	0.0247785
1266	0.0942835
1278	0.0828335
1290	0.0135074
1302	0.00751405
1314	0.00787186
1326	0.00599335
1338	0.00357812
1350	0.00822968
1362	0.0101976
1374	0.00751405
1386	0.00769296
1398	0.0282671
1410	0.0245996
1422	0.00411484
1434	0.0059039
1446	0.0186062
1458	0.0214687
1470	0.0381964
1482	0.102155
1494	0.28625
1506	0.325967
1518	0.544232
1530	0.89453
1542	0.391983
1554	0.0455316
1566	0.027641
1578	0.0200375
1590	0.036139
1602	0.0703995
1614	0.0949991
1626	0.0609175
1638	0.0430269
1650	0.167993
1662	0.267196
1674	0.112442
1686	0.0217371
1698	0.0147597
1710	0.0136863
1722	0.0076035
1734	0.000983983
1746	0.00733515
1758	0.00366757
1770	0.00429374
1782	0.0028625
1794	0.00125234
1806	0.00447265
1818	0.00796132
1830	0.00670897
1842	0.00661952
1854	0.00447265
1866	0.00295195
1878	0.00366757
1890	0.00366757
1902	0.0045621
1914	0.00393593
1926	0.00402539
1938	0.00348867
1950	0.00393593
1962	0.00295195
1974	0.00509882
1986	0.00465156
1998	0.0043832
2010	0.00205742
2022	0.00357812
2034	0.00250468
2046	0.00465156
2058	0.00330976
2070	0.00509882
2082	0.00366757
2094	0.00429374
2106	0.00393593
2118	0.00420429
2130	0.00322031
2142	0.00259414
2154	0.00241523
2166	0.00259414
2178	0.00339921
2190	0.00375703
2202	0.00563554
2214	0.0043832
2226	0.0060828
2238	0.00626171
2250	0.00670897
2262	0.00384648
2274	0.00500937
2286	0.00474101
2298	0.00778241
2310	0.00536718
2322	0.00670897
2334	0.00357812
2346	0.00644062
2358	0.00500937
2370	0.00572499
2382	0.00483046
2394	0.0028625
2406	0.00187851
2418	0.00187851
2430	0.00232578
2442	0.00232578
2454	0.00196797
2466	0.0015207
2478	0.00241523
2490	0.00330976
2502	0.0060828
2514	0.00554609
2526	0.00500937
2538	0.00277304
2550	0.00420429
2562	0.00313086
2574	0.00617226
2586	0.00411484
2598	0.00447265
2610	0.00268359
2622	0.00474101
2634	0.00375703
2646	0.00411484
2658	0.0028625
2670	0.00205742
2682	0.00313086
2694	0.00223632
2706	0.00277304
2718	0.00205742
2730	0.00214687
2742	0.00125234
2754	0.00259414
2766	0.00107344
2778	0.00411484
2790	0.00259414
2802	0.00402539
2814	0.00125234
2826	0.00241523
2838	0.000983983
2850	0.00330976
2862	0.00196797
2874	0.00465156
2886	0.00313086
2898	0.00330976
2910	0.00277304
2922	0.00509882
2934	0.00635116
2946	0.00474101
2958	0.00375703
2970	0.00411484
2982	0.00402539
2994	0.00375703
3006	0.00635116
3018	0.00447265
3030	0.00554609
3042	0.00447265
3054	0.00447265
3066	0.00393593
3078	0.00724569
3090	0.00805077
3102	0.0135074
3114	0.00688788
3126	0.00697733
3138	0.0060828
3150	0.0089453
3162	0.00661952
3174	0.00831913
3186	0.00867694
3198	0.0106449
3210	0.00885585
3222	0.00787186
3234	0.00921366
3246	0.00912421
3258	0.0100187
3270	0.00715624
3282	0.00885585
3294	0.00751405
3306	0.0105555
3318	0.00849803
3330	0.010466
3342	0.00653007
3354	0.0103765
3366	0.00840858
3378	0.0125234
3390	0.0122551
3402	0.0230789
3414	0.0497359
3426	0.0845331
3438	0.0753194
3450	0.0445476
3462	0.0167277
3474	0.0147597
3486	0.017175
3498	0.0259414
3510	0.0518827
3522	0.0671792
3534	0.0539402
3546	0.0368546
3558	0.0152965
3570	0.00688788
3582	0.00966092
3594	0.00822968
3606	0.0103765
3618	0.00572499
3630	0.00447265
3642	0.00626171
3654	0.00599335
3666	0.0059039
3678	0.00241523
3690	0.000715624
3702	0.00599335
3714	0.00322031
3726	0.00509882
3738	0.00116289
3750	0.000626171
3762	0.00357812
3774	0.0045621
3786	0.00447265
3798	0.00429374
3810	0.00545663
3822	0.00205742
3834	0.00474101
3846	0.00161015
3858	0.00420429
3870	0.000626171
3882	0.0043832
3894	0.00259414
3906	0.0043832
3918	0.00232578
3930	0.00491991
3942	0.0045621
3954	8.9453e-05
3966	0.000626171
