Infrared Spectrum: .alpha.-Ethyl-4-fluorobenzyl alcohol
Formula: C 9 H 11 F O
CAS: 701-47-3
Origin: Sadtler Research Labs Under US-EPA Contract
1/CM	ABSORBANCE
450	0.016972
462	0.0243701
474	0.0286348
486	0.0261108
498	0.0281126
510	0.0236738
522	0.0447365
534	0.0819879
546	0.0755472
558	0.0484791
570	0.0892119
582	0.0370773
594	0.00835546
606	0.00809435
618	0.0167979
630	0.0104443
642	0.00818138
654	0.00104443
666	0.00156665
678	0.00417773
690	0.00809435
702	0.0156665
714	0.00957396
726	0.00948692
738	0.019235
750	0.0328996
762	0.0308107
774	0.0213238
786	0.0328126
798	0.0402106
810	0.0673659
822	0.152226
834	0.305845
846	0.268506
858	0.0839897
870	0.0322033
882	0.0280256
894	0.0357718
906	0.0342922
918	0.0172331
930	0.0154054
942	0.0219331
954	0.0382958
966	0.0929544
978	0.132643
990	0.0973062
1002	0.100701
1014	0.171113
1026	0.113234
1038	0.110797
1050	0.0979155
1062	0.0644937
1074	0.0819009
1086	0.124549
1098	0.119152
1110	0.0829453
1122	0.0491753
1134	0.0267201
1146	0.0350755
1158	0.187563
1170	0.0819879
1182	0.0682362
1194	0.0582271
1206	0.0714566
1218	0.184429
1230	0.554158
1242	0.820575
1254	0.171983
1266	0.110014
1278	0.0911267
1290	0.0921711
1302	0.101397
1314	0.0778102
1326	0.0595326
1338	0.0605771
1350	0.0989599
1362	0.100178
1374	0.0980896
1386	0.0859916
1398	0.057966
1410	0.0405588
1422	0.0398625
1434	0.0318552
1446	0.0456939
1458	0.0611863
1470	0.0828583
1482	0.0672788
1494	0.0863397
1506	0.394099
1518	0.633361
1530	0.116802
1542	0.040994
1554	0.0201053
1566	0.0182776
1578	0.0254145
1590	0.0522216
1602	0.188346
1614	0.206101
1626	0.0523086
1638	0.0276774
1650	0.0194961
1662	0.0131424
1674	0.0033944
1686	0.00156665
1698	0.00330737
1710	0.012185
1722	0.0147961
1734	0.0123591
1746	0.0134035
1758	0.0196701
1770	0.0240219
1782	0.0133165
1794	0.00739806
1806	0.00739806
1818	0.00409069
1830	0.00104443
1842	0.00200183
1854	0.00548327
1866	0.00731102
1878	0.0148832
1890	0.0191479
1902	0.0124461
1914	0.00670177
1926	0.00548327
1938	0.00583141
1950	0.00617956
1962	0.00600548
1974	0.00574438
1986	0.00600548
1998	0.00635363
2010	0.00661474
2022	0.00644066
2034	0.00783324
2046	0.00783324
2058	0.00713695
2070	0.00617956
2082	0.00617956
2094	0.00487402
2106	0.0033944
2118	0.00295922
2130	0.00226294
2142	0.00234997
2154	0.00191479
2166	0.00200183
2178	0.00191479
2190	0.00147961
2202	0.00174072
2214	0.00165368
2226	0.00165368
2238	0.00234997
2250	0.00278515
2262	0.0031333
2274	0.00208886
2286	0.000957396
2298	0.000174072
2310	8.7036e-05
2322	0.00234997
2334	0.00365551
2346	0.00400366
2358	0.00426476
2370	0.0031333
2382	0.00269812
2394	0.00548327
2406	0.00496105
2418	0.00504809
2430	0.00426476
2442	0.00452587
2454	0.0065277
2466	0.00783324
2478	0.00565734
2490	0.00348144
2502	0.00348144
2514	0.00348144
2526	0.00348144
2538	0.00382958
2550	0.00417773
2562	0.00522216
2574	0.00704992
2586	0.00731102
2598	0.00565734
2610	0.00504809
2622	0.00461291
2634	0.00443884
2646	0.0043518
2658	0.00504809
2670	0.00583141
2682	0.00617956
2694	0.00635363
2706	0.0065277
2718	0.0065277
2730	0.00783324
2742	0.00974803
2754	0.0106184
2766	0.00983507
2778	0.0102702
2790	0.0114888
2802	0.0122721
2814	0.0138387
2826	0.0175813
2838	0.0257627
2850	0.0420384
2862	0.0816398
2874	0.136037
2886	0.193481
2898	0.130641
2910	0.087036
2922	0.108186
2934	0.183907
2946	0.22464
2958	0.153619
2970	0.231081
2982	0.272423
2994	0.0933026
3006	0.0424736
3018	0.0345533
3030	0.0328996
3042	0.0543105
3054	0.0548327
3066	0.0368162
3078	0.0440402
3090	0.0330737
3102	0.0181905
3114	0.0162757
3126	0.0149702
3138	0.00948692
3150	0.00617956
3162	0.0053092
3174	0.00382958
3186	0.00269812
3198	0.00234997
3210	0.00200183
3222	0.00104443
3234	0.00087036
3246	0.000609252
3258	0.00104443
3270	0.00087036
3282	0.000174072
3294	0.000609252
3306	0
3318	0.000174072
3330	0.00087036
3342	0.00087036
3354	0.00139258
3366	0.00191479
3378	0.0021759
3390	0.00200183
3402	0.00243701
3414	0.00252404
3426	0.00252404
3438	0.00269812
3450	0.00208886
3462	0.0021759
3474	0.0021759
3486	0.00208886
3498	0.00200183
3510	0.00208886
3522	0.00165368
3534	0.0021759
3546	0.00182776
3558	0.00252404
3570	0.00287219
3582	0.00417773
3594	0.00391662
3606	0.00487402
3618	0.00644066
3630	0.0155794
3642	0.0595326
3654	0.0938248
3666	0.0432569
3678	0.0124461
3690	0.00783324
3702	0.0055703
3714	0.00356848
3726	0.00374255
3738	0.0031333
3750	0.00252404
3762	0.00165368
3774	0.00243701
3786	0.00208886
3798	0.00130554
3810	0.00130554
3822	0.00269812
3834	0.00304626
3846	0.00348144
3858	0.00348144
3870	0.00443884
3882	0.00426476
3894	0.00391662
3906	0.00322033
3918	0.00417773
3930	0.00348144
3942	0.00287219
3954	0.00356848
3966	0.00156665
