Infrared Spectrum: Benzeneethanol, .alpha.-ethyl-
Formula: C 10 H 14 O
CAS: 701-70-2
Origin: Sadtler Research Labs Under US-EPA Contract
1/CM	ABSORBANCE
450	0.00184611
462	0.0102429
474	0.0146498
486	0.0116722
498	0.0133992
510	0.0150071
522	0.0254883
534	0.0659241
546	0.0642566
558	0.0649712
570	0.0452595
582	0.0119104
594	0.0116722
606	0.0179847
618	0.0107194
630	0.007444
642	0.0104216
654	0.0207241
666	0.0290018
678	0.0289423
690	0.175917
702	0.435266
714	0.122796
726	0.0391257
738	0.0752737
750	0.153942
762	0.167162
774	0.0485944
786	0.0184611
798	0.0210219
810	0.0218556
822	0.0215578
834	0.0113149
846	0.00488326
858	0.00911146
870	0.00577654
882	0.0014888
894	0.00875414
906	0.0190566
918	0.0167341
930	0.0259647
942	0.0381133
954	0.0614577
966	0.0616959
978	0.0670556
990	0.0797997
1002	0.0834324
1014	0.106003
1026	0.207062
1038	0.43068
1050	0.426392
1062	0.331169
1074	0.189971
1086	0.101119
1098	0.0840279
1110	0.07444
1122	0.056634
1134	0.0405549
1146	0.0322176
1158	0.0407931
1170	0.0606835
1182	0.0668173
1194	0.0474034
1206	0.04121
1218	0.0341828
1230	0.0253096
1242	0.0305502
1254	0.0362672
1266	0.0418055
1278	0.0418055
1290	0.0414482
1302	0.0464506
1314	0.0518698
1326	0.058361
1338	0.0672938
1350	0.0613386
1362	0.0638397
1374	0.104812
1386	0.157753
1398	0.0932584
1410	0.0420437
1422	0.0303715
1434	0.0317412
1446	0.0755715
1458	0.143163
1470	0.12101
1482	0.0810503
1494	0.147213
1506	0.0680679
1518	0.0168532
1530	0.0135779
1542	0.0142329
1554	0.00851594
1566	0.00768221
1578	0.014888
1590	0.0333491
1602	0.0656859
1614	0.0371604
1626	0.00833728
1638	0.00476416
1650	0.00637206
1662	0.0088137
1674	0.00821818
1686	0.00643162
1698	0.0089328
1710	0.00917101
1722	0.00577654
1734	0.0104812
1746	0.0213792
1758	0.0139947
1770	0.00512147
1782	0
1794	0.0121486
1806	0.0199499
1818	0.011434
1830	0.00714624
1842	0.00655072
1854	0.00994518
1866	0.016615
1878	0.0176869
1890	0.0139947
1902	0.00786086
1914	0.00661027
1926	0.00958787
1938	0.0204263
1950	0.0213196
1962	0.016079
1974	0.00643162
1986	0.0059552
1998	0.00512147
2010	0.00494282
2022	0.00524058
2034	0.00571699
2046	0.00613386
2058	0.0060743
2070	0.0058361
2082	0.0045855
2094	0.00410909
2106	0.00369222
2118	0.00267984
2130	0.00190566
2142	0.0014888
2154	0.000833728
2166	0.000476416
2178	0.000655072
2190	0.00059552
2202	0.000178656
2214	0.000238208
2226	0.00029776
2238	0.000357312
2250	0.00059552
2262	0.00059552
2274	0.00101238
2286	0.00166746
2298	0.00202477
2310	0.00452595
2322	0.00500237
2334	0.00375178
2346	0.00488326
2358	0.00357312
2370	0.00184611
2382	0.00291805
2394	0.00220342
2406	0.00131014
2418	0.0014888
2430	0.00154835
2442	0.00178656
2454	0.00154835
2466	0.00113149
2478	0.00131014
2490	0.00131014
2502	0.0014888
2514	0.00196522
2526	0.00184611
2538	0.00166746
2550	0.00232253
2562	0.0028585
2574	0.0028585
2586	0.00273939
2598	0.00279894
2610	0.00315626
2622	0.0029776
2634	0.00363267
2646	0.00381133
2658	0.0045855
2670	0.00565744
2682	0.00649117
2694	0.00714624
2706	0.00833728
2718	0.0100047
2730	0.0125059
2742	0.0168532
2754	0.0188184
2766	0.0184016
2778	0.0197117
2790	0.022332
2802	0.0247736
2814	0.0288827
2826	0.0335278
2838	0.0465697
2850	0.0711646
2862	0.143044
2874	0.319377
2886	0.420854
2898	0.305919
2910	0.248987
2922	0.362255
2934	0.492912
2946	0.415018
2958	0.366245
2970	0.580751
2982	0.405013
2994	0.0878392
3006	0.0582419
3018	0.0772985
3030	0.205097
3042	0.226595
3054	0.103561
3066	0.168354
3078	0.216352
3090	0.135123
3102	0.0768816
3114	0.0431752
3126	0.0192353
3138	0.0100643
3150	0.00851594
3162	0.00827773
3174	0.00672938
3186	0.00404954
3198	0.00339446
3210	0.00369222
3222	0.00303715
3234	0.00273939
3246	0.00315626
3258	0.00267984
3270	0.0029776
3282	0.00345402
3294	0.00363267
3306	0.00375178
3318	0.0044664
3330	0.00500237
3342	0.00512147
3354	0.00428774
3366	0.00535968
3378	0.00559789
3390	0.00518102
3402	0.00565744
3414	0.00589565
3426	0.00512147
3438	0.00488326
3450	0.00470461
3462	0.00541923
3474	0.00464506
3486	0.00339446
3498	0.00267984
3510	0.00166746
3522	0.000416864
3534	0.00142925
3546	0.00089328
3558	0.00101238
3570	0.000952832
3582	0.00101238
3594	0.00172701
3606	0.00440685
3618	0.0325154
3630	0.0868864
3642	0.0397212
3654	0.0351357
3666	0.0592542
3678	0.0481776
3690	0.0138756
3702	0.00363267
3714	0.000476416
3726	0
3738	0
3750	0
3762	0
3774	0
3786	0
3798	0
3810	0
3822	0
3834	0
3846	0
3858	0
3870	0
3882	0
3894	0
3906	0
3918	0
3930	0
3942	0
3954	0
3966	0
