Infrared Spectrum: Cyclohexanepropanoic acid
Formula: C 9 H 16 O 2
CAS: 701-97-3
Origin: Sadtler Research Labs Under US-EPA Contract
1/CM	ABSORBANCE
450	0.0141788
462	0.0147348
474	0.017098
486	0.0189746
498	0.0259945
510	0.0301647
522	0.0342655
534	0.0391308
546	0.0548387
558	0.0747168
570	0.0725622
582	0.0624841
594	0.0666543
606	0.0733962
618	0.0720756
630	0.0665153
642	0.0449691
654	0.0282881
666	0.0223108
678	0.0187661
690	0.0155689
702	0.0129972
714	0.0100781
726	0.0102866
738	0.00785395
750	0.00813197
762	0.0127887
774	0.0069504
786	0.00396173
798	0.00729792
810	0.00271066
822	0.000486528
834	0.00361421
846	0.00708941
858	0.00326669
870	0.00590784
882	0.0101476
894	0.00959155
906	0.00715891
918	0.0052823
930	0.00507379
942	0.00980006
954	0.0118157
966	0.0152909
978	0.0148739
990	0.0108426
1002	0.00924403
1014	0.0105646
1026	0.0136923
1038	0.0191831
1050	0.0308598
1062	0.0461507
1074	0.0741608
1086	0.10655
1098	0.140815
1110	0.226444
1122	0.216435
1134	0.149851
1146	0.136714
1158	0.0980006
1170	0.0811807
1182	0.0721452
1194	0.0585224
1206	0.0521975
1218	0.0418414
1230	0.0315548
1242	0.0282186
1254	0.0296782
1266	0.0362811
1278	0.0365591
1290	0.0284966
1302	0.0232838
1314	0.026342
1326	0.0270371
1338	0.034891
1350	0.0414939
1362	0.0442045
1374	0.0553947
1386	0.0590784
1398	0.0400343
1410	0.0218938
1422	0.0221023
1434	0.0278016
1446	0.05185
1458	0.0711026
1470	0.0274541
1482	0.00632486
1494	0.00250214
1506	0.00236314
1518	0.00152909
1530	0.00034752
1542	0.00034752
1554	0.000486528
1566	0.000556032
1578	0.000486528
1590	0.00111206
1602	0.000625536
1614	0.000556032
1626	0.000486528
1638	0.00111206
1650	0.00111206
1662	0.00201562
1674	0.00236314
1686	0.00465677
1698	0.00715891
1710	0.0129972
1722	0.02662
1734	0.0486528
1746	0.0839608
1758	0.15277
1770	0.324306
1782	0.423627
1794	0.219424
1806	0.0992517
1818	0.0420499
1830	0.017376
1842	0.0087575
1854	0.00618586
1866	0.00458726
1878	0.0035447
1890	0.00291917
1902	0.00312768
1914	0.00229363
1926	0.00236314
1938	0.00257165
1950	0.00201562
1962	0.00194611
1974	0.00194611
1986	0.00201562
1998	0.00208512
2010	0.00111206
2022	0.000417024
2034	0.000486528
2046	0
2058	6.9504e-05
2070	0.000556032
2082	0.00208512
2094	0.00257165
2106	0.0018071
2118	0.0016681
2130	0.00152909
2142	0.00159859
2154	0.00215462
2166	0.00201562
2178	0.00264115
2190	0.00250214
2202	0.00257165
2214	0.00250214
2226	0.00257165
2238	0.00201562
2250	0.00201562
2262	0.00201562
2274	0.0017376
2286	0.00159859
2298	0.00229363
2310	0.00264115
2322	0.00319718
2334	0.0018071
2346	0.000625536
2358	0.00271066
2370	6.9504e-05
2382	0.000834048
2394	0.00104256
2406	0.00145958
2418	0.00152909
2430	0.00132058
2442	0.00104256
2454	0.00104256
2466	0.000973056
2478	0.00104256
2490	0.000973056
2502	0.000973056
2514	0.000556032
2526	0.000486528
2538	0.00139008
2550	0.000556032
2562	0.000556032
2574	0.00111206
2586	0.00152909
2598	0.00229363
2610	0.00264115
2622	0.00312768
2634	0.00382272
2646	0.00437875
2658	0.00785395
2670	0.0106341
2682	0.00806246
2694	0.00451776
2706	0.00403123
2718	0.00333619
2730	0.00326669
2742	0.00284966
2754	0.00250214
2766	0.00284966
2778	0.00423974
2790	0.0068809
2802	0.00986957
2814	0.0109121
2826	0.0121632
2838	0.0262725
2850	0.0988347
2862	0.230336
2874	0.145194
2886	0.0708246
2898	0.0888261
2910	0.15548
2922	0.331326
2934	0.688368
2946	0.447536
2958	0.103422
2970	0.0401038
2982	0.0254385
2994	0.017237
3006	0.0100086
3018	0.0070199
3030	0.00458726
3042	0.00410074
3054	0.00361421
3066	0.00368371
3078	0.00375322
3090	0.00375322
3102	0.00319718
3114	0.00326669
3126	0.00291917
3138	0.00305818
3150	0.00417024
3162	0.00430925
3174	0.00368371
3186	0.00257165
3198	0.00326669
3210	0.00326669
3222	0.00382272
3234	0.00451776
3246	0.00403123
3258	0.00305818
3270	0.00145958
3282	0
3294	0.00152909
3306	0.00201562
3318	0.00264115
3330	0.00257165
3342	0.00159859
3354	0.00208512
3366	0.00298867
3378	0.00208512
3390	0.00208512
3402	0.00271066
3414	0.00132058
3426	0.00132058
3438	0.000764544
3450	0.00333619
3462	0.0018071
3474	0.00278016
3486	0.00382272
3498	0.00305818
3510	0.0034752
3522	0.0051433
3534	0.00750643
3546	0.00952205
3558	0.0154994
3570	0.095429
3582	0.162431
3594	0.0241179
3606	0.00750643
3618	0.00486528
3630	0.00625536
3642	0.00368371
3654	0.00430925
3666	0.00326669
3678	0.0034752
3690	0.00375322
3702	0.00243264
3714	0.00542131
3726	0.00486528
3738	0.00549082
3750	0.00681139
3762	0.0034057
3774	0.00305818
3786	0.00298867
3798	0.00326669
3810	0.00278016
3822	0.00410074
3834	0.00417024
3846	0.00222413
3858	0.00396173
3870	0.00569933
3882	0.00632486
3894	0.00493478
3906	0.00674189
3918	0.00382272
3930	0.00417024
3942	0.00430925
3954	0.00278016
3966	0.00361421
