Infrared Spectrum: 4-Methoxyphenethyl alcohol
Formula: C 9 H 12 O 2
CAS: 702-23-8
Origin: Sadtler Research Labs Under US-EPA Contract
1/CM	ABSORBANCE
450	0.0217011
462	0.0209072
474	0.024083
486	0.0248769
498	0.0288466
510	0.0595458
522	0.0647064
534	0.0506801
546	0.0627216
558	0.0910389
570	0.0709257
582	0.0333456
594	0.0165405
606	0.00846874
618	0.00542528
630	0.00476366
642	0.00621923
654	0.00317578
666	0.000132324
678	0.00423437
690	0.0214365
702	0.046578
714	0.0189223
726	0.0170698
738	0.0133647
750	0.0145556
762	0.0177314
774	0.0161435
786	0.0317578
798	0.0805853
810	0.176653
822	0.24652
834	0.183269
846	0.0913036
858	0.0398295
870	0.0230244
882	0.0166728
894	0.0141587
906	0.0153496
918	0.0228921
930	0.0337426
942	0.0363891
954	0.0312285
966	0.0329487
978	0.0435346
990	0.0696024
1002	0.123591
1014	0.175726
1026	0.302493
1038	0.659503
1050	0.727782
1062	0.398957
1074	0.173741
1086	0.0890541
1098	0.0878631
1110	0.102683
1122	0.0779388
1134	0.0619276
1146	0.0596781
1158	0.0829671
1170	0.265574
1182	0.333589
1194	0.124914
1206	0.115254
1218	0.154687
1230	0.303948
1242	0.895172
1254	1.23683
1266	0.442359
1278	0.271529
1290	0.294553
1302	0.282379
1314	0.134044
1326	0.105198
1338	0.0917005
1350	0.080453
1362	0.0674852
1374	0.0893187
1386	0.123458
1398	0.0836288
1410	0.0599428
1422	0.0619276
1434	0.0813793
1446	0.141322
1458	0.126634
1470	0.192267
1482	0.13153
1494	0.151114
1506	0.636611
1518	1.00156
1530	0.16911
1542	0.0359921
1554	0.033478
1566	0.038374
1578	0.0652357
1590	0.100169
1602	0.156142
1614	0.263986
1626	0.136955
1638	0.0430053
1650	0.0181284
1662	0.0248769
1674	0.00846874
1686	0.00211718
1698	0.000132324
1710	0.0158789
1722	0.0148203
1734	0.00635155
1746	0.0153496
1758	0.0205102
1770	0.014688
1782	0.0121738
1794	0.00820409
1806	0.013497
1818	0.0144233
1830	0.00899803
1842	0.0124385
1854	0.0193193
1866	0.0209072
1878	0.0273911
1890	0.0203779
1902	0.0173344
1914	0.0132324
1926	0.0133647
1938	0.014688
1950	0.0154819
1962	0.014291
1974	0.013497
1986	0.0152173
1998	0.0158789
2010	0.0144233
2022	0.0128354
2034	0.014688
2046	0.0186577
2058	0.0246123
2070	0.0250092
2082	0.0231567
2094	0.0170698
2106	0.0099243
2118	0.00621923
2130	0.00396972
2142	0.00264648
2154	0.00185254
2166	0.00132324
2178	0.000926268
2190	0.00119092
2202	0.00172021
2214	0.00185254
2226	0.00105859
2238	0.000529296
2250	0.000396972
2262	0.00132324
2274	0.00317578
2286	0.00489599
2298	0.00555761
2310	0.00555761
2322	0.00542528
2334	0.00251416
2346	0.00291113
2358	0.00211718
2370	0.00158789
2382	0.00158789
2394	0.000793944
2406	0.00158789
2418	0.00357275
2430	0.00396972
2442	0.00251416
2454	0.00211718
2466	0.00291113
2478	0.00476366
2490	0.0060869
2502	0.00621923
2514	0.00463134
2526	0.00582226
2538	0.00793944
2550	0.00913036
2562	0.00516064
2574	0.00264648
2586	0.00344042
2598	0.00449902
2610	0.00357275
2622	0.00357275
2634	0.00476366
2646	0.00582226
2658	0.00476366
2670	0.00449902
2682	0.00502831
2694	0.00568993
2706	0.0066162
2718	0.00780712
2730	0.0108506
2742	0.0127031
2754	0.0154819
2766	0.0169375
2778	0.0175991
2790	0.0214365
2802	0.0273911
2814	0.03758
2826	0.0604721
2838	0.149261
2850	0.194516
2862	0.151114
2874	0.197163
2886	0.223098
2898	0.190679
2910	0.249695
2922	0.348409
2934	0.369449
2946	0.430053
2958	0.375271
2970	0.259752
2982	0.129545
2994	0.130604
3006	0.237257
3018	0.156142
3030	0.127957
3042	0.138014
3054	0.066162
3066	0.0598104
3078	0.0662943
3090	0.0449902
3102	0.0399618
3114	0.0291113
3126	0.0178637
3138	0.0120415
3150	0.00688085
3162	0.00463134
3174	0.00291113
3186	0.00224951
3198	0.00158789
3210	0.00105859
3222	0.000926268
3234	0.000926268
3246	0.000396972
3258	0.000529296
3270	0.00066162
3282	0.000926268
3294	0.000926268
3306	0.00119092
3318	0.00185254
3330	0.00198486
3342	0.00251416
3354	0.00172021
3366	0.00291113
3378	0.0027788
3390	0.00317578
3402	0.00317578
3414	0.00357275
3426	0.00396972
3438	0.00449902
3450	0.00516064
3462	0.00529296
3474	0.00489599
3486	0.00621923
3498	0.00595458
3510	0.00635155
3522	0.0060869
3534	0.00648388
3546	0.00860106
3558	0.00807176
3570	0.0119092
3582	0.0071455
3594	0.00873338
3606	0.0107182
3618	0.0235537
3630	0.0590165
3642	0.0362568
3654	0.0448578
3666	0.066162
3678	0.0459164
3690	0.0137617
3702	0.00780712
3714	0.00449902
3726	0.00516064
3738	0.00357275
3750	0.000132324
3762	0.00105859
3774	0.000396972
3786	0.00105859
3798	0.000132324
3810	0.000132324
3822	0.000132324
3834	0.000132324
3846	0.00132324
3858	0.00198486
3870	0.00304345
3882	0.00529296
3894	0.00238183
3906	0.00502831
3918	0.00264648
3930	0.0038374
3942	0.00410204
3954	0.00291113
3966	0.00264648
