Infrared Spectrum: Adamantane, 1,3-dimethyl-
Formula: C 12 H 20
CAS: 702-79-4
Origin: Sadtler Research Labs Under US-EPA Contract
1/CM	ABSORBANCE
450	0.0766801
462	0.013834
474	0.00909093
486	0.00197629
498	0.00790516
510	0.0116601
522	0.00454547
534	0.00276681
546	0.0104743
558	0.00770753
570	0.00849805
582	0.0116601
594	0.00869568
606	0.0118577
618	0.0102767
630	0.00375495
642	0.00632413
654	0.0112649
666	0.00830042
678	0.0104743
690	0.0102767
702	0.00849805
714	0.0108696
726	0.00770753
738	0.00849805
750	0.00909093
762	0.00810279
774	0.00889331
786	0.00889331
798	0.00988145
810	0.0112649
822	0.00988145
834	0.00869568
846	0.00889331
858	0.00770753
870	0.00909093
882	0.00889331
894	0.00909093
906	0.00948619
918	0.00988145
930	0.0136364
942	0.0201582
954	0.0177866
966	0.0177866
978	0.0134388
990	0.00988145
1002	0.0102767
1014	0.00948619
1026	0.00790516
1038	0.0112649
1050	0.012253
1062	0.0104743
1074	0.00948619
1086	0.00869568
1098	0.00928856
1110	0.0221344
1122	0.0217392
1134	0.00889331
1146	0.00731227
1158	0.00988145
1170	0.0189724
1182	0.0144269
1194	0.00770753
1206	0.00711464
1218	0.00790516
1230	0.00849805
1242	0.00830042
1254	0.00909093
1266	0.00790516
1278	0.00810279
1290	0.00830042
1302	0.00889331
1314	0.0187748
1326	0.0233202
1338	0.0258894
1350	0.0413045
1362	0.0500001
1374	0.0462452
1386	0.0464428
1398	0.00988145
1410	0.0100791
1422	0.0158103
1434	0.026087
1446	0.102965
1458	0.214625
1470	0.115811
1482	0.0197629
1494	0.00948619
1506	0.00731227
1518	0.00533598
1530	0.00494072
1542	0.00513835
1554	0.00632413
1566	0.00494072
1578	0.00790516
1590	0.00592887
1602	0.00592887
1614	0.00770753
1626	0.00553361
1638	0.00671939
1650	0.00316206
1662	0.00454547
1674	0.00454547
1686	0.00731227
1698	0.0061265
1710	0.00533598
1722	0.00573124
1734	0.00375495
1746	0.00454547
1758	0.00454547
1770	0.00434784
1782	0.00494072
1794	0.00434784
1806	0.00494072
1818	0.00513835
1830	0.00415021
1842	0.00494072
1854	0.00533598
1866	0.0047431
1878	0.00553361
1890	0.00513835
1902	0.00513835
1914	0.00513835
1926	0.0061265
1938	0.00553361
1950	0.00533598
1962	0.00513835
1974	0.00494072
1986	0.00513835
1998	0.00513835
2010	0.00494072
2022	0.0047431
2034	0.00395258
2046	0.00434784
2058	0.00375495
2070	0.00335969
2082	0.0047431
2094	0.00513835
2106	0.00592887
2118	0.00573124
2130	0.00533598
2142	0.00533598
2154	0.00553361
2166	0.00592887
2178	0.00494072
2190	0.00513835
2202	0.00454547
2214	0.00494072
2226	0.00533598
2238	0.00494072
2250	0.00494072
2262	0.00494072
2274	0.00494072
2286	0.0047431
2298	0.00256918
2310	0.000197629
2322	0.000988145
2334	0.00217392
2346	0.00553361
2358	0.000395258
2370	0.00948619
2382	0.00671939
2394	0.0061265
2406	0.00553361
2418	0.00494072
2430	0.00513835
2442	0.0047431
2454	0.00494072
2466	0.00494072
2478	0.00434784
2490	0.00434784
2502	0.00553361
2514	0.00434784
2526	0.00395258
2538	0.00494072
2550	0.00494072
2562	0.00513835
2574	0.00573124
2586	0.00592887
2598	0.00691702
2610	0.00632413
2622	0.00790516
2634	0.0126483
2646	0.0146245
2658	0.0177866
2670	0.0249013
2682	0.01917
2694	0.0150198
2706	0.0162056
2718	0.0150198
2730	0.0148222
2742	0.0130435
2754	0.012253
2766	0.00948619
2778	0.0126483
2790	0.0169961
2802	0.0254941
2814	0.0355732
2826	0.0529646
2838	0.226878
2850	0.570357
2862	0.404744
2874	0.350594
2886	0.355535
2898	0.889133
2910	1.97629
2922	1.15178
2934	0.527472
2946	0.512057
2958	0.566009
2970	0.0739132
2982	0.0166008
2994	0.0108696
3006	0.00395258
3018	0.0047431
3030	0.00454547
3042	0.00335969
3054	0.00494072
3066	0.00553361
3078	0.0047431
3090	0.00533598
3102	0.00434784
3114	0.00316206
3126	0.00533598
3138	0.00553361
3150	0.00830042
3162	0.0116601
3174	0.0118577
3186	0.0104743
3198	0.0100791
3210	0.00869568
3222	0.00731227
3234	0.00533598
3246	0.0061265
3258	0.00711464
3270	0.0047431
3282	0.00434784
3294	0.0047431
3306	0.00573124
3318	0.00553361
3330	0.00711464
3342	0.00928856
3354	0.00731227
3366	0.0061265
3378	0.0047431
3390	0.00415021
3402	0.00276681
3414	0.00217392
3426	0.00217392
3438	0.00355732
3450	0.00553361
3462	0.00494072
3474	0.00415021
3486	0.00395258
3498	0.00177866
3510	0.00276681
3522	0.00197629
3534	0.00296444
3546	0.00118577
3558	0.00256918
3570	0.00276681
3582	0.00276681
3594	0.00177866
3606	0.00256918
3618	0.00217392
3630	0.00316206
3642	0.00237155
3654	0.0047431
3666	0.0013834
3678	0.0047431
3690	0.00395258
3702	0.00197629
3714	0.00237155
3726	0.00158103
3738	0.00652176
3750	0.00355732
3762	0.00118577
3774	0.00217392
3786	0.00177866
3798	0.00316206
3810	0.00177866
3822	0.00434784
3834	0.00197629
3846	0.00237155
3858	0.00316206
3870	0.00118577
3882	0.00177866
3894	0.00276681
3906	0.00256918
3918	0.00316206
3930	0.000197629
3942	0.000790516
3954	0.00355732
3966	0.00316206
