Infrared Spectrum: Citric acid, tripentyl ester
Formula: C 21 H 38 O 7
CAS: 70289-34-8
Origin: Sadtler Research Labs Under US-EPA Contract
1/CM	ABSORBANCE
450	0.00160529
462	0.0243184
474	0.0081972
486	0.0206296
498	0.012125
510	0.0153697
522	0.00631868
534	0.0108613
546	0.0130131
558	0.0071384
570	0.0134912
582	0.0137303
594	0.0137645
606	0.0113395
618	0.0131155
630	0.00990495
642	0.00980248
654	0.0135254
666	0.00765072
678	0.00792396
690	0.0111687
702	0.00877783
714	0.0133205
726	0.00829966
738	0.0201856
750	0.0108954
762	0.00874368
774	0.015199
786	0.0109638
798	0.0102807
810	0.0139011
822	0.00812889
834	0.0153356
846	0.0146867
858	0.00970002
870	0.0131838
882	0.0191951
894	0.0214835
906	0.0168726
918	0.0174874
930	0.0200831
942	0.0232937
954	0.0258212
966	0.0416349
978	0.072272
990	0.0818695
1002	0.0574829
1014	0.0474413
1026	0.0560142
1038	0.072272
1050	0.0772245
1062	0.0731942
1074	0.0794787
1086	0.0744921
1098	0.0669438
1110	0.0722378
1122	0.0757899
1134	0.0825185
1146	0.108032
1158	0.166403
1170	0.258792
1182	0.304048
1194	0.268424
1206	0.220436
1218	0.178221
1230	0.153527
1242	0.14369
1254	0.135083
1266	0.115785
1278	0.100518
1290	0.0910572
1302	0.0860364
1314	0.0850118
1326	0.0944044
1338	0.104275
1350	0.0931065
1362	0.0657142
1374	0.0532476
1386	0.0654751
1398	0.0613424
1410	0.0496614
1422	0.0455286
1434	0.0406103
1446	0.0384927
1458	0.0481927
1470	0.0547846
1482	0.0305346
1494	0.0213469
1506	0.0188536
1518	0.015199
1530	0.0111004
1542	0.0091877
1554	0.00806058
1566	0.00993911
1578	0.00976833
1590	0.00611375
1602	0.00809474
1614	0.011681
1626	0.00864122
1638	0.00973417
1650	0.0151307
1662	0.00833382
1674	0.0143109
1686	0.0210736
1698	0.0283486
1710	0.046485
1722	0.0847386
1734	0.141914
1746	0.283691
1758	0.327922
1770	0.158992
1782	0.0630843
1794	0.0339501
1806	0.0200148
1818	0.0125349
1830	0.0108613
1842	0.0075141
1854	0.00645529
1866	0.00519156
1878	0.00505494
1890	0.00457677
1902	0.00467924
1914	0.00334719
1926	0.00416691
1938	0.00365459
1950	0.00403029
1962	0.00290318
1974	0.00293733
1986	0.0040986
1998	0.00293733
2010	0.00344966
2022	0.00413276
2034	0.00396198
2046	0.00344966
2058	0.00358627
2070	0.00321057
2082	0.00338135
2094	0.00375705
2106	0.00280071
2118	0.00290318
2130	0.00290318
2142	0.00259578
2154	0.00262993
2166	0.0023567
2178	0.00218592
2190	0.00211761
2202	0.00232254
2214	0.00218592
2226	0.00201514
2238	0.00242501
2250	0.00218592
2262	0.00218592
2274	0.00259578
2286	0.00331304
2298	0.00392783
2310	0.00512325
2322	0.00338135
2334	0.00181022
2346	0.00317642
2358	0.00249331
2370	0.0006831
2382	0.00286902
2394	0.00140036
2406	0.00140036
2418	0.00081972
2430	0.00133205
2442	0.00105881
2454	0.000853875
2466	0.00088803
2478	0.000853875
2490	0.000785565
2502	0.00061479
2514	0.00095634
2526	0.00102465
2538	0.000717255
2550	0.000853875
2562	0.00102465
2574	0.000990495
2586	0.00157113
2598	0.00157113
2610	0.00129789
2622	0.00163944
2634	0.00160529
2646	0.00218592
2658	0.00242501
2670	0.00300564
2682	0.00297149
2694	0.00355212
2706	0.00396198
2718	0.0040986
2730	0.00464508
2742	0.00594297
2754	0.00563558
2766	0.00676269
2778	0.00717255
2790	0.00881199
2802	0.0109296
2814	0.0134229
2826	0.0161895
2838	0.0234303
2850	0.0390733
2862	0.0693005
2874	0.0959414
2886	0.098947
2898	0.0856607
2910	0.103182
2922	0.142495
2934	0.201207
2946	0.224467
2958	0.202027
2970	0.240998
2982	0.123948
2994	0.0620596
3006	0.0314909
3018	0.0194342
3030	0.0146525
3042	0.0109979
3054	0.00983664
3066	0.00911939
3078	0.0085046
3090	0.00816305
3102	0.00672853
3114	0.0050891
3126	0.00375705
3138	0.00488417
3150	0.00297149
3162	0.00365459
3174	0.00362043
3186	0.00365459
3198	0.00314226
3210	0.00259578
3222	0.00276655
3234	0.00262993
3246	0.00249331
3258	0.00228838
3270	0.00194684
3282	0.00184437
3294	0.00146867
3306	0.00170775
3318	0.00116127
3330	0.00184437
3342	0.00191268
3354	0.00160529
3366	0.00218592
3378	0.00297149
3390	0.00344966
3402	0.00433768
3414	0.00406444
3426	0.00454261
3438	0.00498663
3450	0.00686516
3462	0.00905108
3474	0.00867537
3486	0.00983664
3498	0.0102807
3510	0.0104856
3522	0.011237
3534	0.0150282
3546	0.0178972
3558	0.0172483
3570	0.013218
3582	0.0120567
3594	0.00877783
3606	0.00874368
3618	0.00867537
3630	0.00536234
3642	0.00433768
3654	0.00471339
3666	0.00597712
3678	0.00604544
3690	0.00256163
3702	0.00201514
3714	0.00215176
3726	0.00112711
3738	0.00215176
3750	0.00116127
3762	0.00187853
3774	0.00140036
3786	0.00027324
3798	0.00170775
3810	0.0023567
3822	0.00525987
3834	0.00143451
3846	0.00160529
3858	0.00201514
3870	0.000922185
3882	0.00034155
3894	0.00105881
3906	0.00122958
3918	0.000307395
3930	0.00355212
3942	0.00314226
3954	0.00081972
3966	0.00399614
