Infrared Spectrum: Benzenebutanenitrile, .gamma.-(1-methylethoxy)-
Formula: C 13 H 17 N O
CAS: 70289-00-8
Origin: Sadtler Research Labs Under US-EPA Contract
1/CM	ABSORBANCE
450	0.0288999
462	0.0313745
474	0.0167036
486	0.0153779
498	0.0390635
510	0.0498458
522	0.0456036
534	0.0655772
546	0.0553253
558	0.0403892
570	0.0669913
582	0.0675216
594	0.0575347
606	0.052939
618	0.0358819
630	0.0618653
642	0.0369424
654	0.0332305
666	0.0481666
678	0.0561207
690	0.202918
702	0.560676
714	0.133099
726	0.0679635
738	0.128238
750	0.285287
762	0.204774
774	0.060628
786	0.0466641
798	0.0397706
810	0.0517017
822	0.0684937
834	0.0557671
846	0.0466641
858	0.0521436
870	0.0605396
882	0.0709683
894	0.0676099
906	0.0870533
918	0.0794527
930	0.0707916
942	0.0651353
954	0.0718521
966	0.0943004
978	0.1445
990	0.232083
1002	0.161557
1014	0.145383
1026	0.198588
1038	0.16138
1050	0.290325
1062	0.566951
1074	0.612908
1086	0.711716
1098	0.519315
1110	0.469292
1122	0.545475
1134	0.578441
1146	0.495364
1158	0.264695
1170	0.258685
1182	0.176316
1194	0.106232
1206	0.118605
1218	0.119754
1230	0.088379
1242	0.0660191
1254	0.063191
1266	0.0620421
1278	0.0905885
1290	0.0988077
1302	0.151482
1314	0.172693
1326	0.196732
1338	0.257183
1350	0.193638
1362	0.181354
1374	0.296246
1386	0.365447
1398	0.141053
1410	0.0743267
1422	0.0823692
1434	0.178791
1446	0.197792
1458	0.205481
1470	0.118605
1482	0.103138
1494	0.134336
1506	0.0518785
1518	0.0255415
1530	0.0184712
1542	0.0166153
1554	0.020062
1566	0.0144058
1578	0.0205039
1590	0.0428638
1602	0.0539112
1614	0.0260718
1626	0.0150244
1638	0.0138755
1650	0.0154663
1662	0.0188247
1674	0.0179409
1686	0.0124614
1698	0.016792
1710	0.017499
1722	0.0202388
1734	0.0252764
1746	0.0311978
1758	0.0243042
1770	0.0185596
1782	0.0163501
1794	0.0243042
1806	0.039417
1818	0.027044
1830	0.0170571
1842	0.0136104
1854	0.0136987
1866	0.0204155
1878	0.0278394
1890	0.0267788
1902	0.0184712
1914	0.0121079
1926	0.0103403
1938	0.0238623
1950	0.0318164
1962	0.0262486
1974	0.014229
1986	0.0108706
1998	0.00910304
2010	0.00830763
2022	0.00689356
2034	0.00742384
2046	0.00830763
2058	0.00662843
2070	0.0071587
2082	0.00724708
2094	0.0054795
2106	0.00733546
2118	0.00830763
2130	0.00680518
2142	0.00813087
2154	0.00760059
2166	0.00645167
2178	0.00821925
2190	0.00795411
2202	0.00707032
2214	0.00910304
2226	0.00901466
2238	0.0156431
2250	0.0388868
2262	0.0211226
2274	0.00972169
2286	0.00910304
2298	0.00874952
2310	0.00954493
2322	0.00936817
2334	0.00777735
2346	0.00424219
2358	0.00848438
2370	0.00132569
2382	0.00327002
2394	0.00353516
2406	0.000618653
2418	0.0016792
2430	0.00327002
2442	0.00106055
2454	0.00185596
2466	0.00309326
2478	0.00141406
2490	0.00397706
2502	0.00406543
2514	0.00247461
2526	0.00441895
2538	0.00433057
2550	0.00388868
2562	0.00574464
2574	0.00565626
2586	0.00654005
2598	0.00989845
2610	0.0120195
2622	0.0124614
2634	0.0174107
2646	0.0161734
2658	0.0127266
2670	0.0149361
2682	0.0105171
2694	0.00989845
2706	0.0126382
2718	0.0113125
2730	0.0129033
2742	0.0168804
2754	0.0145825
2766	0.0141406
2778	0.017499
2790	0.0181177
2802	0.0247461
2814	0.0344678
2826	0.0486968
2838	0.066461
2850	0.0906769
2862	0.139816
2874	0.212817
2886	0.255946
2898	0.248964
2910	0.197615
2922	0.190722
2934	0.336989
2946	0.447551
2958	0.301814
2970	0.518696
2982	0.88379
2994	0.31295
3006	0.120991
3018	0.119223
3030	0.216263
3042	0.195583
3054	0.120902
3066	0.207691
3078	0.266374
3090	0.159612
3102	0.0873185
3114	0.0469292
3126	0.025895
3138	0.0152896
3150	0.0127266
3162	0.0155547
3174	0.0119312
3186	0.0122847
3198	0.0117544
3210	0.00751222
3222	0.00698194
3234	0.00609815
3246	0.00291651
3258	0.00415381
3270	0.00318164
3282	0.00282813
3294	0.00371192
3306	0.00556788
3318	0.00388868
3330	0.0054795
3342	0.00627491
3354	0.00609815
3366	0.00556788
3378	0.00751222
3390	0.00512598
3402	0.00813087
3414	0.00760059
3426	0.00724708
3438	0.0103403
3450	0.00795411
3462	0.00609815
3474	0.0101636
3486	0.00795411
3498	0.00636329
3510	0.00981007
3522	0.00539112
3534	0.00486084
3546	0.00521436
3558	0.00477247
3570	0.0021211
3582	0.0067168
3594	0.00450733
3606	0.00574464
3618	0.00565626
3630	0.00132569
3642	0.0054795
3654	0.00424219
3666	0.000795411
3678	0.000353516
3690	0.00123731
3702	8.8379e-05
3714	0.000176758
3726	0.000176758
3738	0.000176758
3750	0.000176758
3762	0.000176758
3774	0.000176758
3786	0.000176758
3798	0.000176758
3810	0.000176758
3822	0.000176758
3834	0.000176758
3846	0.000176758
3858	0.000176758
3870	0.000176758
3882	0.000176758
3894	0.000176758
3906	0.000176758
3918	0.000176758
3930	0.000176758
3942	0.000176758
3954	0.000176758
3966	0.000176758
