Infrared Spectrum: o-Isobutyrotoluidide, 6-chloro-,
Formula: C 11 H 14 Cl N O
CAS: 70289-11-1
Origin: Sadtler Research Labs Under US-EPA Contract
1/CM	ABSORBANCE
450	0
462	0.0191492
474	0.0405831
486	0.0360135
498	0.0449896
510	0.0380263
522	0.0322598
534	0.0410184
546	0.0392231
558	0.02361
570	0.0182787
582	0.0136003
594	0.00854096
606	0.0160483
618	0.0103906
630	0.013165
642	0.0296485
654	0.0189315
666	0.0378631
678	0.0162659
690	0.021978
702	0.0162659
714	0.0301382
726	0.0162659
738	0.0194212
750	0.0258949
762	0.113535
774	0.124143
786	0.0285061
798	0.0178979
810	0.0231748
822	0.0358503
834	0.030791
846	0.0289413
858	0.0453704
870	0.0335654
882	0.0318246
894	0.0196388
906	0.0146339
918	0.0185507
930	0.0209444
942	0.031879
954	0.0224676
966	0.0157219
978	0.0201284
990	0.0252421
1002	0.0298117
1014	0.0290501
1026	0.0315526
1038	0.0317158
1050	0.0402023
1062	0.0438472
1074	0.0391687
1086	0.0610923
1098	0.0615275
1110	0.0635948
1122	0.0734414
1134	0.10766
1146	0.175117
1158	0.119845
1170	0.0808399
1182	0.111957
1194	0.0793711
1206	0.0495049
1218	0.0657708
1230	0.0981394
1242	0.0706669
1254	0.0600587
1266	0.112773
1278	0.096181
1290	0.0625067
1302	0.0341094
1314	0.0255141
1326	0.0209444
1338	0.0224132
1350	0.0294309
1362	0.041236
1374	0.0499945
1386	0.0632684
1398	0.0611467
1410	0.0705037
1422	0.117941
1434	0.170221
1446	0.233326
1458	0.323795
1470	0.465455
1482	0.50582
1494	0.282668
1506	0.135404
1518	0.0725165
1530	0.0548362
1542	0.0459144
1554	0.0378631
1566	0.041236
1578	0.0432488
1590	0.0366119
1602	0.0271461
1614	0.0159395
1626	0.0181155
1638	0.0172451
1650	0.0194756
1662	0.0272549
1674	0.0275813
1686	0.0388423
1698	0.054401
1710	0.152377
1722	0.422206
1734	0.289413
1746	0.0548906
1758	0.0325862
1770	0.033783
1782	0.0214884
1794	0.0172451
1806	0.0124034
1818	0.00924817
1830	0.00897617
1842	0.0139811
1854	0.0106082
1866	0.00810575
1878	0.00799695
1890	0.00875856
1902	0.00924817
1914	0.0125666
1926	0.0138723
1938	0.00908497
1950	0.00756174
1962	0.00718093
1974	0.00696333
1986	0.00663692
1998	0.00663692
2010	0.00652812
2022	0.00647372
2034	0.00739854
2046	0.00750734
2058	0.00718093
2070	0.00718093
2082	0.00663692
2094	0.00685453
2106	0.00669132
2118	0.00685453
2130	0.00603851
2142	0.00625612
2154	0.00658252
2166	0.00696333
2178	0.00663692
2190	0.00669132
2202	0.00658252
2214	0.00669132
2226	0.00723533
2238	0.00854096
2250	0.0124034
2262	0.0219236
2274	0.0269285
2286	0.022794
2298	0.0232292
2310	0.0220324
2322	0.0157763
2334	0.0133282
2346	0.0124578
2358	0.0150147
2370	0.0119682
2382	0.012077
2394	0.00690893
2406	0.00680013
2418	0.00669132
2430	0.00658252
2442	0.00587531
2454	0.00603851
2466	0.0053857
2478	0.00598411
2490	0.0053857
2502	0.0056033
2514	0.00592971
2526	0.00680013
2538	0.00658252
2550	0.00614731
2562	0.00614731
2574	0.00603851
2586	0.0054401
2598	0.00598411
2610	0.00582091
2622	0.00587531
2634	0.00625612
2646	0.00658252
2658	0.00614731
2670	0.00631052
2682	0.00582091
2694	0.00587531
2706	0.00636492
2718	0.00674572
2730	0.00875856
2742	0.00990098
2754	0.00924817
2766	0.00870416
2778	0.00897617
2790	0.00864976
2802	0.00913937
2814	0.010445
2826	0.0125666
2838	0.0151779
2850	0.0196388
2862	0.0309542
2874	0.0484169
2886	0.0696877
2898	0.0685997
2910	0.0753454
2922	0.0805679
2934	0.109564
2946	0.123001
2958	0.109292
2970	0.187847
2982	0.216462
2994	0.0905233
3006	0.0433032
3018	0.0328038
3030	0.0316614
3042	0.0269285
3054	0.0297573
3066	0.0456424
3078	0.0536394
3090	0.0331846
3102	0.0164835
3114	0.0134914
3126	0.0122402
3138	0.0111522
3150	0.00995538
3162	0.010173
3174	0.0103362
3186	0.0110978
3198	0.0108258
3210	0.00990098
3222	0.00919377
3234	0.00897617
3246	0.00886736
3258	0.00854096
3270	0.00750734
3282	0.00805135
3294	0.00848656
3306	0.00875856
3318	0.00935697
3330	0.0104994
3342	0.00952018
3354	0.00946577
3366	0.010173
3378	0.011533
3390	0.0141987
3402	0.0193668
3414	0.0205092
3426	0.0313894
3438	0.0656076
3450	0.0556522
3462	0.0220324
3474	0.0138723
3486	0.013165
3498	0.0126754
3510	0.0114242
3522	0.0103362
3534	0.00941137
3546	0.00979218
3558	0.0104994
3570	0.0106626
3582	0.0131106
3594	0.0104994
3606	0.0102818
3618	0.0106626
3630	0.00701773
3642	0.0118594
3654	0.00489609
3666	0.0135458
3678	0.0119138
3690	0.00712653
3702	0.0141443
3714	0.0103362
3726	0.0137635
3738	0.0131106
3750	0.00375367
3762	0.0144707
3774	0.011533
3786	0.0110978
3798	0.00772494
3810	0.0170819
3822	0.00875856
3834	0.012349
3846	0.0110978
3858	0.00805135
3870	0.00881296
3882	0.00908497
3894	0.0141987
3906	0.0113698
3918	0.00892176
3930	0.0164835
3942	0.0170275
3954	0.0126754
3966	0.00984658
