Infrared Spectrum: Cyclohexanemethanol, 2,6-dimethyl-,
Formula: C 9 H 18 O
CAS: 70289-32-6
Origin: Sadtler Research Labs Under US-EPA Contract
1/CM	ABSORBANCE
450	0.00594461
462	0.00305723
474	0.0146068
486	0.024288
498	0.00186831
510	0.0101908
522	0.0108701
534	0.0139274
546	0.0137575
558	0.0157957
570	0.0108701
582	0.004416
594	0.0142671
606	0.00815261
618	0.0214006
630	0.0142671
642	0.0123988
654	0.00832245
666	0.00679384
678	0.00356677
690	0.00492553
702	0.00883199
714	0.00798276
726	0.00968122
738	0.0137575
750	0.0135877
762	0.00696369
774	0.0107003
786	0.0113797
798	0.0200418
810	0.0163052
822	0.0156258
834	0.0207212
846	0.0285341
858	0.0275151
870	0.0210609
882	0.0249674
894	0.0283643
906	0.0298929
918	0.0356677
930	0.0470473
942	0.0621636
954	0.0900184
966	0.11074
978	0.110909
990	0.118213
1002	0.16509
1014	0.200248
1026	0.193964
1038	0.230141
1050	0.281944
1062	0.254939
1074	0.152692
1086	0.122969
1098	0.145728
1110	0.123988
1122	0.0822055
1134	0.0774498
1146	0.0698067
1158	0.0754116
1170	0.0876405
1182	0.089339
1194	0.0810165
1206	0.0772799
1218	0.0752418
1230	0.0755815
1242	0.0788085
1254	0.0772799
1266	0.0725242
1278	0.0665796
1290	0.0631827
1302	0.0642018
1314	0.0619938
1326	0.0633526
1338	0.0689575
1350	0.0740529
1362	0.0856024
1374	0.142671
1386	0.206872
1398	0.108532
1410	0.0501046
1422	0.037536
1434	0.0541809
1446	0.129423
1458	0.211458
1470	0.18768
1482	0.101738
1494	0.0494252
1506	0.0215704
1518	0.00866215
1530	0.00526523
1542	0.00339692
1554	0.00560492
1566	0.00475569
1578	0.004416
1590	0.00594461
1602	0.00611446
1614	0.00594461
1626	0.00594461
1638	0.00730338
1650	0.00645415
1662	0.00679384
1674	0.00679384
1686	0.00900184
1698	0.0117194
1710	0.0142671
1722	0.0246277
1734	0.0295532
1746	0.0302326
1758	0.0360074
1770	0.0422917
1782	0.0210609
1794	0.00798276
1806	0.00798276
1818	0.00696369
1830	0.00322707
1842	0.00135877
1854	0.00118892
1866	0.00169846
1878	0.00118892
1890	0.000509538
1902	0.000509538
1914	0.000509538
1926	0.00101908
1938	0.00135877
1950	0.00084923
1962	0.00101908
1974	0.00101908
1986	0.00186831
1998	0.00254769
2010	0.00271754
2022	0.00271754
2034	0.002208
2046	0.002208
2058	0.00288738
2070	0.00254769
2082	0.00186831
2094	0.00135877
2106	0.00118892
2118	0.00118892
2130	0.00101908
2142	0.000169846
2154	0
2166	0.000679384
2178	0.00084923
2190	0.00101908
2202	0.000679384
2214	0.000339692
2226	0.000169846
2238	0
2250	0.000339692
2262	0.000679384
2274	0.00084923
2286	0.00152861
2298	0.00271754
2310	0.00288738
2322	0.00288738
2334	0.00237784
2346	0.00339692
2358	0.00237784
2370	0.00390646
2382	0.00424615
2394	0.00373661
2406	0.00390646
2418	0.00390646
2430	0.00424615
2442	0.0040763
2454	0.00390646
2466	0.00322707
2478	0.00322707
2490	0.00390646
2502	0.00356677
2514	0.00424615
2526	0.00458584
2538	0.00526523
2550	0.00543507
2562	0.0062843
2574	0.00781292
2586	0.00968122
2598	0.0118892
2610	0.013248
2622	0.0139274
2634	0.0161354
2646	0.0185132
2658	0.0203815
2670	0.0239483
2682	0.0253071
2694	0.0234387
2706	0.0222498
2718	0.0237784
2730	0.0278547
2742	0.031931
2754	0.0317612
2766	0.031931
2778	0.035328
2790	0.0412726
2802	0.047387
2814	0.0553698
2826	0.0735433
2838	0.136047
2850	0.35277
2862	0.580534
2874	0.690764
2886	0.775857
2898	0.714033
2910	0.822904
2922	1.37932
2934	1.67044
2946	1.1716
2958	0.900693
2970	0.8708
2982	0.517691
2994	0.196682
3006	0.0743925
3018	0.0405932
3030	0.030912
3042	0.0259864
3054	0.0229292
3066	0.0212307
3078	0.0200418
3090	0.0178338
3102	0.0152861
3114	0.0137575
3126	0.0130781
3138	0.0115495
3150	0.0113797
3162	0.0113797
3174	0.0101908
3186	0.00832245
3198	0.00713353
3210	0.00526523
3222	0.00356677
3234	0.00305723
3246	0.00288738
3258	0.00203815
3270	0.00237784
3282	0.00152861
3294	0.00254769
3306	0.00203815
3318	0.00254769
3330	0.00203815
3342	0.00101908
3354	0.00152861
3366	0.00084923
3378	0.00135877
3390	0.00101908
3402	0
3414	0.00101908
3426	0.00169846
3438	0.00186831
3450	0.00305723
3462	0.00373661
3474	0.00322707
3486	0.00237784
3498	0.00322707
3510	0.00169846
3522	0.00271754
3534	0.00237784
3546	0.00288738
3558	0.00798276
3570	0.0127385
3582	0.00832245
3594	0.00373661
3606	0.00322707
3618	0.00662399
3630	0.00883199
3642	0.0203815
3654	0.0490855
3666	0.0949439
3678	0.0784689
3690	0.0271754
3702	0.00951138
3714	0.00577476
3726	0.00611446
3738	0.00237784
3750	0.00305723
3762	0.00458584
3774	0.00679384
3786	0.00543507
3798	0.00288738
3810	0.0062843
3822	0.00390646
3834	0.00679384
3846	0.00798276
3858	0.002208
3870	0.00509538
3882	0.00679384
3894	0.00356677
3906	0.00509538
3918	0.00611446
3930	0.00458584
3942	0.00339692
3954	0.00356677
3966	0.00424615
