Infrared Spectrum: Phosphonic diamide, p-(p-aminophenyl)-N,N'-diethyl
Formula: C 10 H 18 N 3 O P
CAS: 70289-05-3
Origin: Sadtler Research Labs Under US-EPA Contract
1/CM	ABSORBANCE
450	0
462	0.0620761
474	0.0381813
486	0.0500655
498	0.0627083
510	0.0436177
522	0.0463991
534	0.0371698
546	0.0590419
558	0.0485484
570	0.0303427
582	0.0455141
594	0.0465255
606	0.0417212
618	0.0484219
630	0.0433648
642	0.0472841
654	0.0399512
666	0.0398248
678	0.0522148
690	0.0448819
702	0.0514562
714	0.0499391
726	0.0512033
738	0.052594
750	0.0557547
762	0.0606854
774	0.0629611
786	0.0606854
798	0.0608119
810	0.0565133
822	0.0510769
834	0.0499391
846	0.0560076
858	0.0610647
870	0.0613176
882	0.0689033
894	0.0772475
906	0.0853389
918	0.0840746
930	0.0764889
942	0.111889
954	0.201526
966	0.283957
978	0.230605
990	0.132623
1002	0.0934303
1014	0.0833161
1026	0.0823046
1038	0.0867296
1050	0.100131
1062	0.10051
1074	0.0969703
1086	0.0962117
1098	0.0876146
1110	0.0743397
1122	0.0724432
1134	0.0715582
1146	0.0705468
1158	0.0690297
1170	0.0670068
1182	0.0657426
1194	0.0653633
1206	0.0646047
1218	0.0665011
1230	0.0687768
1242	0.0732018
1254	0.0761097
1266	0.0763625
1278	0.0801554
1290	0.0854653
1302	0.0910282
1314	0.0825575
1326	0.085971
1338	0.103797
1350	0.103671
1362	0.0963381
1374	0.10759
1386	0.121877
1398	0.0935567
1410	0.0739604
1422	0.0792704
1434	0.104303
1446	0.148553
1458	0.18724
1470	0.175735
1482	0.115302
1494	0.0706733
1506	0.0494333
1518	0.0434912
1530	0.0403305
1542	0.0366641
1554	0.0356527
1566	0.036032
1578	0.0376755
1590	0.0388134
1602	0.0389398
1614	0.0398248
1626	0.0481691
1638	0.0576512
1650	0.0513298
1662	0.0480426
1674	0.0506976
1686	0.0603062
1698	0.0793968
1710	0.0910282
1722	0.0871089
1734	0.0663747
1746	0.0590419
1758	0.0576512
1770	0.0536055
1782	0.0482955
1794	0.0446291
1806	0.0399512
1818	0.0371698
1830	0.0353998
1842	0.0345148
1854	0.0347677
1866	0.0323656
1878	0.0312277
1890	0.030722
1902	0.0303427
1914	0.0299634
1926	0.029837
1938	0.0297106
1950	0.0293313
1962	0.0294577
1974	0.0292049
1986	0.028952
1998	0.0286992
2010	0.0294577
2022	0.0297106
2034	0.0303427
2046	0.0303427
2058	0.0297106
2070	0.0292049
2082	0.0286992
2094	0.0284463
2106	0.0286992
2118	0.0283199
2130	0.0281934
2142	0.0281934
2154	0.0284463
2166	0.0285727
2178	0.0284463
2190	0.0286992
2202	0.028952
2214	0.0290784
2226	0.0288256
2238	0.0285727
2250	0.0286992
2262	0.0281934
2274	0.028067
2286	0.0274349
2298	0.0268027
2310	0.026297
2322	0.0279406
2334	0.029837
2346	0.0290784
2358	0.0294577
2370	0.0285727
2382	0.0281934
2394	0.0292049
2406	0.0305956
2418	0.029837
2430	0.028952
2442	0.0284463
2454	0.028067
2466	0.0273084
2478	0.0269292
2490	0.0274349
2502	0.0275613
2514	0.0285727
2526	0.0292049
2538	0.0299634
2550	0.0303427
2562	0.0303427
2574	0.0302163
2586	0.0308484
2598	0.0312277
2610	0.0313541
2622	0.0314806
2634	0.0313541
2646	0.0322391
2658	0.0331241
2670	0.035147
2682	0.0355263
2694	0.0356527
2706	0.0374227
2718	0.0398248
2730	0.0431119
2742	0.0469048
2754	0.0452612
2766	0.0439969
2778	0.0466519
2790	0.0515826
2802	0.0563869
2814	0.0648576
2826	0.0853389
2838	0.136416
2850	0.235662
2862	0.338953
2874	0.44136
2886	0.541365
2898	0.492437
2910	0.529607
2922	0.66046
2934	0.83177
2946	0.884996
2958	0.84416
2970	1.26428
2982	1.00245
2994	0.42543
3006	0.246408
3018	0.185343
3030	0.156265
3042	0.120865
3054	0.0863503
3066	0.0652368
3078	0.0549962
3090	0.0496862
3102	0.0458934
3114	0.0419741
3126	0.0398248
3138	0.0385605
3150	0.0383077
3162	0.0388134
3174	0.0379284
3186	0.0359056
3198	0.0345148
3210	0.032492
3222	0.0302163
3234	0.0294577
3246	0.0285727
3258	0.0276877
3270	0.0279406
3282	0.0270556
3294	0.0266763
3306	0.0269292
3318	0.0276877
3330	0.0266763
3342	0.027182
3354	0.0276877
3366	0.0283199
3378	0.0281934
3390	0.028067
3402	0.0292049
3414	0.0290784
3426	0.029837
3438	0.0284463
3450	0.0284463
3462	0.0279406
3474	0.0281934
3486	0.0283199
3498	0.0285727
3510	0.0273084
3522	0.0275613
3534	0.0273084
3546	0.0281934
3558	0.0285727
3570	0.029837
3582	0.0299634
3594	0.0302163
3606	0.0302163
3618	0.0300899
3630	0.0319863
3642	0.035147
3654	0.0359056
3666	0.0329977
3678	0.0300899
3690	0.030722
3702	0.0299634
3714	0.0286992
3726	0.0293313
3738	0.0302163
3750	0.0278142
3762	0.028952
3774	0.0292049
3786	0.030722
3798	0.0288256
3810	0.0300899
3822	0.0286992
3834	0.0300899
3846	0.0288256
3858	0.0278142
3870	0.0274349
3882	0.0285727
3894	0.0292049
3906	0.028067
3918	0.028067
3930	0.0292049
3942	0.030722
3954	0.0286992
3966	0.0312277
