Infrared Spectrum: Picolinamide, N-(1,1,3,3-tetramethylbutyl)-5-ethylthio-
Formula: C 16 H 26 N 2 S
CAS: 70289-18-8
Origin: Sadtler Research Labs Under US-EPA Contract
1/CM	ABSORBANCE
450	0
462	0.0180736
474	0.00401122
486	0.0127253
498	0.0172436
510	0.0105122
522	0.0123564
534	0.00673148
546	0.0151689
558	0.0153533
570	0.0138779
582	0.0160449
594	0.0101433
606	0.016967
618	0.0142929
630	0.0189035
642	0.0252661
654	0.047397
666	0.0398356
678	0.0392362
690	0.0520998
702	0.0464287
714	0.0379452
726	0.0291851
738	0.0300611
750	0.0170592
762	0.0184885
774	0.0228686
786	0.0125869
798	0.0148
810	0.0128175
822	0.0184424
834	0.0176125
846	0.0308449
858	0.0568487
870	0.0179813
882	0.0124486
894	0.0136013
906	0.0157683
918	0.0241134
930	0.0201022
942	0.0124486
954	0.0154455
966	0.02001
978	0.0244362
990	0.0182119
1002	0.0189035
1014	0.0349945
1026	0.069159
1038	0.0535752
1050	0.0368848
1062	0.0356399
1074	0.0213932
1086	0.0144312
1098	0.0160449
1110	0.0188112
1122	0.037392
1134	0.0410343
1146	0.0343951
1158	0.036516
1170	0.0295078
1182	0.0333807
1194	0.0488263
1206	0.0729397
1218	0.124671
1230	0.12799
1242	0.12006
1254	0.0693434
1266	0.0485957
1278	0.0372075
1290	0.0443079
1302	0.0434319
1314	0.0598456
1326	0.0883391
1338	0.0760288
1350	0.121582
1362	0.161786
1374	0.178061
1386	0.149337
1398	0.181427
1410	0.201529
1422	0.169347
1434	0.139286
1446	0.11296
1458	0.118262
1470	0.216237
1482	0.167319
1494	0.107934
1506	0.163446
1518	0.434549
1530	0.264971
1542	0.0745073
1554	0.0402966
1566	0.0311677
1578	0.0251739
1590	0.0272486
1602	0.0225919
1614	0.0135552
1626	0.0131863
1638	0.010005
1650	0.00442618
1662	0.00972837
1674	0.00636263
1686	0.0061782
1698	0.00636263
1710	0.00866793
1722	0.0069159
1734	0.00428786
1746	0.00663926
1758	0.00562493
1770	0.00433396
1782	0.00525608
1794	0.00345795
1806	0.00525608
1818	0.0061321
1830	0.00544051
1842	0.00793023
1854	0.00530219
1866	0.00378069
1878	0.00488724
1890	0.00424175
1902	0.00456449
1914	0.00442618
1926	0.00424175
1938	0.00447228
1950	0.00608599
1962	0.00497945
1974	0.00327353
1986	0.00364237
1998	0.0038268
2010	0.00401122
2022	0.00336574
2034	0.00433396
2046	0.00438007
2058	0.00419565
2070	0.00405733
2082	0.00364237
2094	0.00364237
2106	0.00414954
2118	0.0038268
2130	0.00378069
2142	0.00331963
2154	0.00341184
2166	0.00359627
2178	0.00396512
2190	0.00428786
2202	0.00350406
2214	0.0038729
2226	0.00364237
2238	0.00391901
2250	0.00456449
2262	0.00488724
2274	0.00479502
2286	0.00571714
2298	0.0069159
2310	0.00733085
2322	0.00650095
2334	0.00433396
2346	0.00493334
2358	0.00654705
2370	0.00590157
2382	0.00599378
2394	0.00507166
2406	0.00456449
2418	0.0053483
2430	0.00484113
2442	0.00511777
2454	0.00497945
2466	0.00470281
2478	0.00530219
2490	0.00585546
2502	0.00608599
2514	0.00622431
2526	0.0061321
2538	0.00585546
2550	0.0053483
2562	0.00576325
2574	0.00608599
2586	0.00599378
2598	0.00608599
2610	0.00700811
2622	0.00710032
2634	0.00746917
2646	0.0076536
2658	0.0084374
2670	0.00825297
2682	0.0084374
2694	0.00903678
2706	0.00871403
2718	0.00977447
2730	0.0111115
2742	0.0106505
2754	0.0114804
2766	0.0118492
2778	0.0127253
2790	0.0142468
2802	0.0153994
2814	0.017382
2826	0.0201022
2838	0.0257271
2850	0.0376686
2862	0.0544973
2874	0.105491
2886	0.12942
2898	0.138364
2910	0.164506
2922	0.160864
2934	0.175987
2946	0.234126
2958	0.319653
2970	0.332747
2982	0.28867
2994	0.135275
3006	0.0957622
3018	0.0632574
3030	0.0410343
3042	0.050025
3054	0.0385446
3066	0.0308449
3078	0.0191801
3090	0.0162754
3102	0.0140623
3114	0.0135091
3126	0.013463
3138	0.014339
3150	0.014339
3162	0.0159527
3174	0.0177047
3186	0.0177508
3198	0.017382
3210	0.0170592
3222	0.0171514
3234	0.0189957
3246	0.0224536
3258	0.028263
3270	0.0439851
3282	0.0919354
3294	0.104153
3306	0.0712338
3318	0.0466132
3330	0.0336574
3342	0.0237907
3354	0.0181658
3366	0.0150306
3378	0.0136013
3390	0.0116187
3402	0.0105122
3414	0.0102816
3426	0.00926731
3438	0.00852961
3450	0.00880625
3462	0.00931341
3474	0.00820687
3486	0.00857572
3498	0.00816076
3510	0.00862182
3522	0.00774581
3534	0.00728475
3546	0.00866793
3558	0.00797634
3570	0.0061782
3582	0.00940562
3594	0.00737696
3606	0.00760749
3618	0.00793023
3630	0.00470281
3642	0.00645484
3654	0.00484113
3666	0.00719254
3678	0.0076997
3690	0.00401122
3702	0.00719254
3714	0.00774581
3726	0.0092212
3738	0.00912899
3750	0.0053483
3762	0.0103739
3774	0.00700811
3786	0.00899067
3798	0.00677758
3810	0.0102816
3822	0.00645484
3834	0.00650095
3846	0.00903678
3858	0.00866793
3870	0.00839129
3882	0.00816076
3894	0.00931341
3906	0.00673148
3918	0.00834519
3930	0.00889846
3942	0.010005
3954	0.00424175
3966	0.00871403
