Infrared Spectrum: Sulfide, allyl sec-butyl,
Formula: C 7 H 14 S
CAS: 70289-07-5
Origin: Sadtler Research Labs Under US-EPA Contract
1/CM	ABSORBANCE
450	0
462	0.0453971
474	0.0324265
486	0.0259412
498	0.0444892
510	0.043257
522	0.0267194
534	0.0297675
546	0.0278219
558	0.0512339
570	0.0442297
582	0.0529849
594	0.0503908
606	0.0392361
618	0.0380687
630	0.0406628
642	0.0356691
654	0.0347612
666	0.03969
678	0.0411817
690	0.038393
702	0.0414411
714	0.0345018
726	0.0369014
738	0.0487046
750	0.0586271
762	0.0389767
774	0.046305
786	0.0533092
798	0.0507799
810	0.0472778
822	0.0440352
834	0.0462402
846	0.0460456
858	0.0501314
870	0.0498071
882	0.0468239
894	0.0555142
906	0.11907
918	0.180226
930	0.104673
942	0.0705601
954	0.0666689
966	0.0684199
978	0.0867085
990	0.119524
1002	0.110899
1014	0.0940368
1026	0.0734784
1038	0.0628426
1050	0.0734136
1062	0.0773048
1074	0.0652421
1086	0.0583028
1098	0.0566167
1110	0.0612212
1122	0.0623886
1134	0.0683551
1146	0.0885892
1158	0.0705601
1170	0.0501962
1182	0.0469536
1194	0.0520121
1206	0.0787315
1218	0.140082
1230	0.144492
1242	0.0828173
1254	0.0566815
1266	0.0571355
1278	0.0730245
1290	0.0813257
1302	0.0739973
1314	0.0555142
1326	0.04851
1338	0.0549953
1350	0.0584326
1362	0.0603133
1374	0.102338
1386	0.130809
1398	0.0786018
1410	0.0686145
1422	0.0740621
1434	0.084698
1446	0.107721
1458	0.146697
1470	0.121081
1482	0.0652421
1494	0.0386524
1506	0.0327508
1518	0.0281462
1530	0.0277571
1542	0.0243847
1554	0.0276274
1566	0.0319077
1578	0.0306106
1590	0.031324
1602	0.0297027
1614	0.031778
1626	0.0461753
1638	0.0683551
1650	0.0488343
1662	0.0340478
1674	0.0275625
1686	0.0276274
1698	0.03969
1710	0.0535686
1722	0.0397549
1734	0.0451377
1746	0.043257
1758	0.0359286
1770	0.0309997
1782	0.0298324
1794	0.026914
1806	0.0263303
1818	0.0277571
1830	0.0333344
1842	0.0351503
1854	0.0267843
1866	0.0236065
1878	0.0226985
1890	0.0221149
1902	0.0223094
1914	0.02205
1926	0.0217906
1938	0.0214015
1950	0.0217906
1962	0.0218555
1974	0.0216609
1986	0.0210124
1998	0.0204935
2010	0.0199099
2022	0.0202341
2034	0.0199099
2046	0.019845
2058	0.0196505
2070	0.0199747
2082	0.019391
2094	0.0191316
2106	0.0188074
2118	0.0188074
2130	0.0184831
2142	0.0183534
2154	0.018548
2166	0.0187425
2178	0.0186777
2190	0.0178346
2202	0.018094
2214	0.0180291
2226	0.0184831
2238	0.0184183
2250	0.0184831
2262	0.0188722
2274	0.0189371
2286	0.0191965
2298	0.0187425
2310	0.0182237
2322	0.0192613
2334	0.0195856
2346	0.0187425
2358	0.0175103
2370	0.0175103
2382	0.0177697
2394	0.0184831
2406	0.0191965
2418	0.0193262
2430	0.0195856
2442	0.0193262
2454	0.0191316
2466	0.0184831
2478	0.0193262
2490	0.0192613
2502	0.0189371
2514	0.0191316
2526	0.0191316
2538	0.0189371
2550	0.0197802
2562	0.0200396
2574	0.020753
2586	0.0212718
2598	0.0216609
2610	0.0210124
2622	0.0206233
2634	0.0214015
2646	0.0216609
2658	0.0223094
2670	0.0225688
2682	0.0240605
2694	0.0243199
2706	0.0263303
2718	0.0285353
2730	0.0293784
2742	0.0311294
2754	0.0286002
2766	0.0274328
2778	0.029119
2790	0.0324914
2802	0.0376147
2814	0.0428678
2826	0.0483155
2838	0.0557087
2850	0.0787964
2862	0.139175
2874	0.201628
2886	0.255261
2898	0.232368
2910	0.260385
2922	0.366744
2934	0.442427
2946	0.366679
2958	0.345602
2970	0.601901
2982	0.544182
2994	0.209281
3006	0.0929343
3018	0.0764617
3030	0.0563573
3042	0.0453322
3054	0.0461105
3066	0.0512987
3078	0.064853
3090	0.0903402
3102	0.0641396
3114	0.0352152
3126	0.029573
3138	0.0267843
3150	0.027368
3162	0.0262655
3174	0.0260061
3186	0.0257466
3198	0.0239308
3210	0.0221797
3222	0.0213366
3234	0.0200396
3246	0.0196505
3258	0.0194559
3270	0.0201693
3282	0.0199747
3294	0.0204287
3306	0.0199747
3318	0.0189371
3330	0.0192613
3342	0.0190019
3354	0.0184183
3366	0.0192613
3378	0.0197802
3390	0.0197802
3402	0.0184831
3414	0.0191965
3426	0.0189371
3438	0.0180291
3450	0.0188074
3462	0.0186128
3474	0.019391
3486	0.0191965
3498	0.019391
3510	0.0188722
3522	0.0204935
3534	0.0183534
3546	0.0201693
3558	0.0199099
3570	0.0217258
3582	0.0212069
3594	0.0205584
3606	0.0195208
3618	0.020299
3630	0.0191316
3642	0.0205584
3654	0.0201044
3666	0.0209475
3678	0.0206881
3690	0.0190668
3702	0.0221797
3714	0.019391
3726	0.0219203
3738	0.0223094
3750	0.01764
3762	0.0190668
3774	0.0208178
3786	0.0199747
3798	0.0195856
3810	0.0205584
3822	0.01764
3834	0.0193262
3846	0.0203638
3858	0.0192613
3870	0.0184183
3882	0.0216609
3894	0.0199747
3906	0.0191316
3918	0.0189371
3930	0.0216609
3942	0.0222446
3954	0.0184831
3966	0.0184831
