Infrared Spectrum: Acetamide, 2-chloro-N-(o-chlorobenzyl)-,
Formula: C 9 H 9 Cl 2 N O
CAS: 70289-13-3
Origin: Sadtler Research Labs Under US-EPA Contract
1/CM	ABSORBANCE
450	0.0705449
462	0.0831873
474	0.0837773
486	0.0736633
498	0.0894243
510	0.083693
522	0.048547
534	0.027982
546	0.0182894
558	0.0157609
570	0.0170252
582	0.0269706
594	0.0429843
606	0.0215764
618	0.010114
630	0.00750119
642	0.0079226
654	0.00834402
666	0.0147495
678	0.031269
690	0.0378431
702	0.021745
714	0.0292462
726	0.0395287
738	0.106534
750	0.425798
762	0.170926
774	0.101898
786	0.0415515
798	0.022925
810	0.0251163
822	0.0304262
834	0.0150867
846	0.0112096
858	0.0100297
870	0.0115468
882	0.00834402
894	0.00640551
906	0.00859687
918	0.0103668
930	0.0148338
942	0.0160981
954	0.00918685
966	0.00404558
978	0.00505698
990	0.00800689
1002	0.00707977
1014	0.0121368
1026	0.0298362
1038	0.0846201
1050	0.162329
1062	0.124065
1074	0.0461028
1086	0.030089
1098	0.0295833
1110	0.0226721
1122	0.0303419
1134	0.0439957
1146	0.0301733
1158	0.0234307
1170	0.0264649
1182	0.0300047
1194	0.0353146
1206	0.0494741
1218	0.0713034
1230	0.105354
1242	0.16511
1254	0.236414
1266	0.159969
1278	0.108894
1290	0.0763604
1302	0.0800689
1314	0.0582396
1326	0.0249478
1338	0.0209022
1350	0.0304262
1362	0.0484627
1374	0.0274763
1386	0.0233464
1398	0.0250321
1410	0.0483784
1422	0.104679
1434	0.0998754
1446	0.152384
1458	0.130976
1470	0.171179
1482	0.205229
1494	0.293726
1506	0.591414
1518	0.826311
1530	0.364608
1542	0.139488
1554	0.0746747
1566	0.0541097
1578	0.0482942
1590	0.036326
1602	0.0295833
1614	0.0186265
1626	0.0148338
1638	0.0176151
1650	0.0182051
1662	0.0343875
1674	0.0602623
1686	0.129206
1698	0.402198
1710	0.84283
1722	0.494741
1734	0.176489
1746	0.0742533
1758	0.0391916
1770	0.0241892
1782	0.0196379
1794	0.016688
1806	0.0142438
1818	0.00884972
1830	0.00480413
1842	0.00480413
1854	0.0039613
1866	0.00261277
1878	0.00353989
1890	0.00286562
1902	0.0039613
1914	0.00884972
1926	0.00606838
1938	0.00556268
1950	0.00674264
1962	0.00219136
1974	0.0010114
1986	0.000758547
1998	0.00143281
2010	0.00109568
2022	0.00126424
2034	0.0010114
2046	0.000505698
2058	0.000421415
2070	0.000674264
2082	0.00084283
2094	0.00134853
2106	0.00143281
2118	0.00176994
2130	0.00109568
2142	0.0010114
2154	0.000505698
2166	0.000674264
2178	0.000589981
2190	0.000337132
2202	0.000168566
2214	0.000421415
2226	0.0010114
2238	0.000927113
2250	0.00227564
2262	0.00328704
2274	0.00328704
2286	0.00353989
2298	0.00320275
2310	0.00227564
2322	0.00311847
2334	0.00117996
2346	0.00320275
2358	0.00294991
2370	0.00244421
2382	0.00303419
2394	0.00126424
2406	0.00134853
2418	0.00151709
2430	0.00143281
2442	0.00134853
2454	0.000505698
2466	0.00109568
2478	0.00117996
2490	0.00160138
2502	0.00143281
2514	0.00117996
2526	0.00117996
2538	0.00151709
2550	0.00185423
2562	0.00185423
2574	0.00235992
2586	0.00160138
2598	0.00252849
2610	0.00143281
2622	0.00235992
2634	0.00244421
2646	0.00219136
2658	0.00252849
2670	0.00303419
2682	0.00320275
2694	0.00278134
2706	0.00320275
2718	0.00328704
2730	0.00370845
2742	0.00286562
2754	0.00294991
2766	0.00303419
2778	0.00328704
2790	0.00370845
2802	0.004467
2814	0.00438272
2826	0.0049727
2838	0.0049727
2850	0.00615266
2862	0.00750119
2874	0.0094397
2886	0.0129796
2898	0.0169409
2910	0.0171094
2922	0.0202279
2934	0.0286562
2946	0.040203
2958	0.0423943
2970	0.0343032
2982	0.0289091
2994	0.0205651
3006	0.0143281
3018	0.0153395
3030	0.0216607
3042	0.0150867
3054	0.0179523
3066	0.0457657
3078	0.0782146
3090	0.0389387
3102	0.0146652
3114	0.00598409
3126	0.00404558
3138	0.0049727
3150	0.00514126
3162	0.00337132
3174	0.00311847
3186	0.00269706
3198	0.00303419
3210	0.00278134
3222	0.00303419
3234	0.00303419
3246	0.00261277
3258	0.00286562
3270	0.00244421
3282	0.00320275
3294	0.00379274
3306	0.00379274
3318	0.00286562
3330	0.00387702
3342	0.0034556
3354	0.00320275
3366	0.004467
3378	0.00615266
3390	0.00901828
3402	0.0142438
3414	0.0185423
3426	0.0340503
3438	0.0768661
3450	0.130386
3462	0.0767818
3474	0.0294991
3486	0.0141595
3498	0.00648979
3510	0.00463557
3522	0.00337132
3534	0.00404558
3546	0.00235992
3558	0.00244421
3570	0.00269706
3582	0.00227564
3594	0.00269706
3606	0.0010114
3618	0.00151709
3630	0.000168566
3642	0.00126424
3654	0.00235992
3666	0.00168566
3678	0.00202279
3690	0.00202279
3702	0.00278134
3714	0.00193851
3726	0.00320275
3738	0.0034556
3750	0.00227564
3762	0.00303419
3774	0.00311847
3786	0.00227564
3798	0.00303419
3810	0.00109568
3822	0.0034556
3834	0.00311847
3846	0.00286562
3858	0.00337132
3870	0.00455128
3882	0.00665836
3894	0.00438272
3906	0.00168566
3918	0.00328704
3930	0.00539411
3942	0.00488841
3954	0.00404558
3966	0.00362417
