Infrared Spectrum: Ethylamine, 2-(4-chloro-m-tolyloxy)-N-methyl-,
Formula: C 10 H 14 Cl N O
CAS: 70289-16-6
Origin: Sadtler Research Labs Under US-EPA Contract
1/CM	ABSORBANCE
450	0.037909
462	0.013827
474	0.00760485
486	0.0225841
498	0
510	0.0157858
522	0.00679827
534	0.0212014
546	0.0125595
558	0.0229298
570	0.035835
582	0.0405592
594	0.0381395
606	0.0354893
618	0.0458595
630	0.10497
642	0.141266
654	0.174105
666	0.228606
678	0.128822
690	0.120295
702	0.122369
714	0.105777
726	0.103472
738	0.12283
750	0.101974
762	0.0685589
774	0.0520817
786	0.0668305
798	0.133546
810	0.152443
822	0.0837686
834	0.0697111
846	0.102781
858	0.121447
870	0.134583
882	0.0844599
894	0.0602627
906	0.043555
918	0.0327239
930	0.0305346
942	0.0344523
954	0.0521969
966	0.0520817
978	0.0497772
990	0.0614149
1002	0.0937931
1014	0.160048
1026	0.34072
1038	0.710477
1050	0.461937
1062	0.251882
1074	0.162813
1086	0.082962
1098	0.0632585
1110	0.101513
1122	0.30477
1134	0.354778
1146	0.374942
1158	0.492011
1170	0.869488
1182	0.290021
1194	0.101398
1206	0.0729374
1218	0.120871
1230	0.489361
1242	0.910738
1254	0.27412
1266	0.224458
1278	0.489361
1290	0.727761
1302	0.501229
1314	0.305116
1326	0.10762
1338	0.0690198
1350	0.0754724
1362	0.113497
1374	0.117529
1386	0.14357
1398	0.15129
1410	0.22031
1422	0.17134
1434	0.155208
1446	0.224343
1458	0.401905
1470	0.691811
1482	1.15225
1494	0.478645
1506	0.181825
1518	0.120525
1530	0.093217
1542	0.0894146
1554	0.0960976
1566	0.156706
1578	0.27389
1590	0.268474
1602	0.328737
1614	0.204063
1626	0.0873406
1638	0.0337609
1650	0.0210862
1662	0.0153249
1674	0.0200491
1686	0.0210862
1698	0.0323782
1710	0.0526578
1722	0.0405592
1734	0.02558
1746	0.0200491
1758	0.0103702
1770	0.00841143
1782	0.0078353
1794	0.00864188
1806	0.00437855
1818	0.00403288
1830	0.00760485
1842	0.010255
1854	0.00990935
1866	0.0152097
1878	0.0160163
1890	0.0119834
1902	0.00956367
1914	0.00772007
1926	0.00633738
1938	0.0059917
1950	0.00610693
1962	0.00587647
1974	0.00437855
1986	0.00345675
1998	0.00265017
2010	0.00265017
2022	0.00472422
2034	0.00426333
2046	0.0032263
2058	0.00288062
2070	0.00345675
2082	0.0032263
2094	0.00345675
2106	0.0027654
2118	0.00253495
2130	0.00126747
2142	0.0004609
2154	0.000576125
2166	0.000806575
2178	0.000576125
2190	0.00115225
2202	0.00172837
2214	0.00195882
2226	0.00126747
2238	0.00126747
2250	0.00126747
2262	0.00069135
2274	0.0004609
2286	0.00265017
2298	0.0064526
2310	0.00910278
2322	0.00702872
2334	0.0041481
2346	0.00668305
2358	0.00265017
2370	0.00610693
2382	0.00622215
2394	0.00311108
2406	0.00495467
2418	0.00495467
2430	0.00472422
2442	0.0055308
2454	0.00518512
2466	0.00518512
2478	0.00472422
2490	0.004609
2502	0.0041481
2514	0.00564602
2526	0.00806575
2538	0.009218
2550	0.00852665
2562	0.00748962
2574	0.00714395
2586	0.00622215
2598	0.00668305
2610	0.00679827
2622	0.0078353
2634	0.00864188
2646	0.00944845
2658	0.00956367
2670	0.0104855
2682	0.0154401
2694	0.0232754
2706	0.027654
2718	0.0277692
2730	0.0313412
2742	0.0377938
2754	0.0479336
2766	0.0630281
2778	0.0980565
2790	0.150253
2802	0.268359
2814	0.233446
2826	0.195076
2838	0.209709
2850	0.236672
2862	0.268013
2874	0.269511
2886	0.282993
2898	0.303733
2910	0.293593
2922	0.339914
2934	0.437625
2946	0.46355
2958	0.385889
2970	0.319634
2982	0.291404
2994	0.157052
3006	0.0739744
3018	0.0530035
3030	0.0577277
3042	0.0675218
3054	0.052773
3066	0.048625
3078	0.0561146
3090	0.048625
3102	0.0357198
3114	0.0209709
3126	0.0114073
3138	0.00748962
3150	0.00610693
3162	0.00518512
3174	0.00437855
3186	0.0032263
3198	0.0027654
3210	0.00265017
3222	0.0009218
3234	0.00195882
3246	0.00103703
3258	0.0004609
3270	0.00126747
3282	0.00161315
3294	0.00172837
3306	0.00195882
3318	0.00149792
3330	0.00172837
3342	0.0036872
3354	0.00311108
3366	0.0109464
3378	0.00887233
3390	0.00633738
3402	0.0041481
3414	0.0041481
3426	0.0027654
3438	0.0027654
3450	0.0027654
3462	0.00265017
3474	0.00195882
3486	0.00311108
3498	0.00195882
3510	0.0032263
3522	0.00241972
3534	0.00218928
3546	0.00345675
3558	0.00241972
3570	0.00518512
3582	0.0036872
3594	0.00345675
3606	0.00426333
3618	0.0027654
3630	0.00564602
3642	0.0119834
3654	0.0209709
3666	0.013827
3678	0.00218928
3690	0.00253495
3702	0.00483945
3714	0.00495467
3726	0.00472422
3738	0.00288062
3750	0.0032263
3762	0.00576125
3774	0.00437855
3786	0.0036872
3798	0.00299585
3810	0.00576125
3822	0.0027654
3834	0.00299585
3846	0.00656782
3858	0.00253495
3870	0.00564602
3882	0.00564602
3894	0.00483945
3906	0.0096789
3918	0.00357197
3930	0.0078353
3942	0.0078353
3954	0.00449378
3966	0.00587647
