Infrared Spectrum: Morpholine, 2,6-dimethyl-4-propyl-,
Formula: C 9 H 19 N O
CAS: 70289-40-6
Origin: Sadtler Research Labs Under US-EPA Contract
1/CM	ABSORBANCE
450	0
462	0.00680509
474	0.0134519
486	0.0175666
498	0.0254004
510	0.0295942
522	0.0303064
534	0.0201779
546	0.0166171
558	0.0136893
570	0.0173293
582	0.0167753
594	0.0159049
606	0.0180414
618	0.00696335
630	0.0136893
642	0.0102076
654	0.0113154
666	0.00498513
678	0.0157467
690	0.00989112
702	0.0145597
714	0.0100494
726	0.0142432
738	0.0143223
750	0.0133728
762	0.0235013
774	0.0235804
786	0.0204153
798	0.0379819
810	0.0159841
822	0.0291986
834	0.0710578
846	0.0703457
858	0.0644901
870	0.0732735
882	0.0694753
894	0.0547573
906	0.0382984
918	0.0428088
930	0.044154
942	0.0373489
954	0.0415427
966	0.0652814
978	0.0591885
990	0.0337881
1002	0.035608
1014	0.0813446
1026	0.180731
1038	0.213648
1050	0.106745
1062	0.152561
1074	0.415981
1086	0.356555
1098	0.227654
1110	0.167595
1122	0.199801
1134	0.327119
1146	0.471846
1158	0.544249
1170	0.255112
1182	0.100415
1194	0.0566564
1206	0.0467652
1218	0.0810281
1230	0.161661
1242	0.0973287
1254	0.0647275
1266	0.0754891
1278	0.0848263
1290	0.0964583
1302	0.0959043
1314	0.11988
1326	0.234064
1338	0.134678
1350	0.125419
1362	0.14623
1374	0.24981
1386	0.220374
1398	0.131512
1410	0.0826107
1422	0.0382984
1434	0.0473191
1446	0.112601
1458	0.176616
1470	0.156201
1482	0.0587137
1494	0.0228683
1506	0.0181997
1518	0.0158258
1530	0.0144015
1542	0.0134519
1554	0.0121067
1566	0.0119485
1578	0.0118693
1590	0.011632
1602	0.0115528
1614	0.0115528
1626	0.0109989
1638	0.0106824
1650	0.0119485
1662	0.0125024
1674	0.0125024
1686	0.0127398
1698	0.0157467
1710	0.0257169
1722	0.0184371
1734	0.0135311
1746	0.011632
1758	0.0149554
1770	0.0181205
1782	0.0164588
1794	0.0172501
1806	0.0164588
1818	0.0117111
1830	0.00957461
1842	0.00949548
1854	0.00775464
1866	0.00822942
1878	0.00878332
1890	0.00815029
1902	0.00941635
1914	0.009812
1926	0.00973287
1938	0.0102868
1950	0.00878332
1962	0.00854593
1974	0.00854593
1986	0.0084668
1998	0.00838767
2010	0.00870419
2022	0.00925809
2034	0.00854593
2046	0.00807116
2058	0.0079129
2070	0.00751725
2082	0.00688422
2094	0.00688422
2106	0.00648858
2118	0.00569729
2130	0.00553903
2142	0.00609293
2154	0.007359
2166	0.00656771
2178	0.00696335
2190	0.00680509
2202	0.00727987
2214	0.0079129
2226	0.00712161
2238	0.00799203
2250	0.00838767
2262	0.00830854
2274	0.007359
2286	0.00625119
2298	0.00617206
2310	0.00577642
2322	0.00609293
2334	0.00506426
2346	0.00625119
2358	0.00498513
2370	0.00530164
2382	0.00569729
2394	0.00720074
2406	0.00680509
2418	0.00625119
2430	0.00625119
2442	0.00593467
2454	0.00680509
2466	0.00727987
2478	0.00862506
2490	0.0084668
2502	0.00830854
2514	0.00894158
2526	0.0100494
2538	0.0109198
2550	0.0117902
2562	0.0123441
2574	0.0149554
2586	0.0164588
2598	0.0189118
2610	0.0238178
2622	0.031889
2634	0.0387732
2646	0.0371906
2658	0.0364785
2670	0.0388523
2682	0.0480313
2694	0.0553903
2706	0.0691587
2718	0.0881497
2730	0.117507
2742	0.142037
2754	0.165459
2766	0.222194
2778	0.303143
2790	0.345398
2802	0.384883
2814	0.400234
2826	0.248702
2838	0.139425
2850	0.138555
2862	0.250918
2874	0.43426
2886	0.457524
2898	0.318257
2910	0.280908
2922	0.324271
2934	0.62868
2946	0.754099
2958	0.472558
2970	0.63865
2982	0.79129
2994	0.39248
3006	0.0761221
3018	0.039248
3030	0.0323638
3042	0.0267456
3054	0.0226309
3066	0.0204944
3078	0.0193075
3090	0.0195449
3102	0.018991
3114	0.0191492
3126	0.0181997
3138	0.0169336
3150	0.0151928
3162	0.014718
3174	0.0156675
3186	0.0151136
3198	0.0130563
3210	0.00957461
3222	0.00815029
3234	0.0079129
3246	0.00704248
3258	0.00720074
3270	0.00696335
3282	0.00688422
3294	0.00743813
3306	0.00743813
3318	0.00727987
3330	0.007359
3342	0.00680509
3354	0.00609293
3366	0.00609293
3378	0.00720074
3390	0.0079129
3402	0.007359
3414	0.00664684
3426	0.00775464
3438	0.00830854
3450	0.00743813
3462	0.00822942
3474	0.00680509
3486	0.0079129
3498	0.00751725
3510	0.00751725
3522	0.00553903
3534	0.00625119
3546	0.00704248
3558	0.00767551
3570	0.00838767
3582	0.00917896
3594	0.007359
3606	0.00727987
3618	0.00720074
3630	0.00704248
3642	0.00775464
3654	0.00767551
3666	0.007359
3678	0.00807116
3690	0.00648858
3702	0.00759638
3714	0.00727987
3726	0.00783377
3738	0.00727987
3750	0.00720074
3762	0.00656771
3774	0.00822942
3786	0.00767551
3798	0.00815029
3810	0.00815029
3822	0.00767551
3834	0.00688422
3846	0.00862506
3858	0.00870419
3870	0.00815029
3882	0.00759638
3894	0.00775464
3906	0.0079129
3918	0.00759638
3930	0.00704248
3942	0.00688422
3954	0.00830854
3966	0.00902071
