Infrared Spectrum: Ethylamine, 1-(p-bromophenoxymethyl)-,
Formula: C 9 H 12 Br N O
CAS: 70289-30-4
Origin: Sadtler Research Labs Under US-EPA Contract
1/CM	ABSORBANCE
450	0.0207694
462	0.00489685
474	0.0256663
486	0.0538654
498	0.0756479
510	0.0381617
522	0.0396814
534	0.0287057
546	0.01773
558	0.016548
570	0.0131708
582	0.01182
594	0.0287057
606	0.0629837
618	0.0454225
630	0.0759857
642	0.118369
654	0.034278
666	0.0327583
678	0.0285368
690	0.0344468
702	0.040188
714	0.0417077
726	0.0601131
738	0.0915205
750	0.103847
762	0.117862
774	0.144542
786	0.198069
798	0.269833
810	0.328765
822	0.427377
834	0.268651
846	0.114316
858	0.057918
870	0.0427208
882	0.0111446
894	0.0111446
906	0.00962485
918	0.0108068
930	0.0233023
942	0.02955
954	0.0281991
966	0.0184054
978	0.0325894
990	0.0984436
1002	0.25109
1014	0.234374
1026	0.292291
1038	0.415051
1050	0.266287
1062	0.10925
1074	0.28655
1086	0.0824022
1098	0.0764922
1110	0.0694002
1122	0.0594377
1134	0.0565671
1146	0.0793628
1158	0.141333
1170	0.457265
1182	0.179664
1194	0.123772
1206	0.220865
1218	0.448822
1230	0.903047
1242	1.46044
1254	0.635409
1266	0.407621
1278	0.508597
1290	0.330622
1302	0.164636
1314	0.105029
1326	0.0884811
1338	0.0673739
1350	0.0604508
1362	0.0631525
1374	0.0824022
1386	0.122928
1398	0.0798694
1410	0.0525145
1422	0.0656854
1434	0.0499817
1446	0.0754791
1458	0.23049
1470	0.362029
1482	0.711395
1494	1.51667
1506	0.20381
1518	0.0835842
1530	0.0388371
1542	0.0229646
1554	0.0297188
1566	0.0677117
1578	0.200602
1590	0.296344
1602	0.212084
1614	0.11381
1626	0.0974305
1638	0.0624771
1650	0.0293811
1662	0.0167168
1674	0.0138463
1686	0.00894942
1698	0.00742971
1710	0.0109757
1722	0.0140151
1734	0.0111446
1746	0.0143528
1758	0.00439028
1770	0.00219514
1782	0.000675428
1794	0.00320828
1806	0.00439028
1818	0.002364
1830	0.00439028
1842	0.00776742
1854	0.0109757
1866	0.0172234
1878	0.0170546
1890	0.00962485
1902	0.00489685
1914	0.00337714
1926	0.00337714
1938	0.00320828
1950	0.00270171
1962	0.00320828
1974	0.004728
1986	0.00607885
1998	0.00742971
2010	0.00709199
2022	0.00945599
2034	0.0123266
2046	0.0151971
2058	0.0157037
2070	0.0155348
2082	0.0136774
2094	0.00996256
2106	0.00776742
2118	0.004728
2130	0.00337714
2142	0.00287057
2154	0.002364
2166	0.00168857
2178	0.00202628
2190	0.00185743
2202	0.00185743
2214	0.00185743
2226	0.00168857
2238	0.00168857
2250	0.00253286
2262	0.003546
2274	0.00557228
2286	0.00726085
2298	0.00878056
2310	0.00827399
2322	0.00658542
2334	0.00574114
2346	0.00506571
2358	0.00607885
2370	0.00742971
2382	0.00962485
2394	0.00861171
2406	0.0101314
2418	0.00962485
2430	0.00945599
2442	0.00911828
2454	0.00894942
2466	0.00979371
2478	0.0116511
2490	0.0113134
2502	0.0126643
2514	0.0150283
2526	0.0150283
2538	0.0121577
2550	0.0101314
2562	0.00962485
2574	0.00894942
2586	0.00911828
2598	0.00827399
2610	0.00810514
2622	0.00810514
2634	0.00810514
2646	0.00928714
2658	0.0101314
2670	0.010638
2682	0.01182
2694	0.0121577
2706	0.0121577
2718	0.0136774
2730	0.0163791
2742	0.0187431
2754	0.0184054
2766	0.018912
2778	0.0195874
2790	0.0206006
2802	0.024822
2814	0.0310697
2826	0.036642
2838	0.0469422
2850	0.0697379
2862	0.109419
2874	0.152647
2886	0.172741
2898	0.158388
2910	0.167675
2922	0.200602
2934	0.230152
2946	0.209383
2958	0.194861
2970	0.269496
2982	0.225424
2994	0.13154
3006	0.0432274
3018	0.0275237
3030	0.0336025
3042	0.0536965
3054	0.0395125
3066	0.0351223
3078	0.0513325
3090	0.0511637
3102	0.0523457
3114	0.0244843
3126	0.013002
3138	0.0104691
3150	0.0104691
3162	0.00979371
3174	0.00928714
3186	0.00979371
3198	0.00962485
3210	0.00776742
3222	0.00709199
3234	0.00658542
3246	0.00574114
3258	0.00523457
3270	0.00489685
3282	0.00540342
3294	0.00540342
3306	0.00624771
3318	0.00607885
3330	0.00894942
3342	0.0128331
3354	0.010638
3366	0.00658542
3378	0.00557228
3390	0.00624771
3402	0.00928714
3414	0.0126643
3426	0.00726085
3438	0.00591
3450	0.00591
3462	0.00624771
3474	0.00388371
3486	0.00439028
3498	0.00253286
3510	0.00405257
3522	0.00388371
3534	0.00320828
3546	0.00388371
3558	0.00405257
3570	0.00388371
3582	0.00219514
3594	0.00709199
3606	0.003546
3618	0.00574114
3630	0.013002
3642	0.0310697
3654	0.0675428
3666	0.028368
3678	0.00928714
3690	0.00675428
3702	0.00371485
3714	0.00827399
3726	0.00726085
3738	0.00506571
3750	0.00776742
3762	0.00405257
3774	0.004728
3786	0.00489685
3798	0.00371485
3810	0.003546
3822	0.00878056
3834	0.00641657
3846	0.00506571
3858	0.00810514
3870	0.00692314
3882	0.00861171
3894	0.00523457
3906	0.0101314
3918	0.00911828
3930	0.0101314
3942	0.00557228
3954	0.00726085
3966	0.00827399
