Infrared Spectrum: 1-Butanol, 4-dipropylamino-,
Formula: C 10 H 23 N O
CAS: 70289-17-7
Origin: Sadtler Research Labs Under US-EPA Contract
1/CM	ABSORBANCE
450	0.0772782
462	0.010446
474	0.00449292
486	0.021229
498	0.0097721
510	0.0207798
522	0.0156129
534	0.0229139
546	0.0140404
558	0.0114569
570	0.0103337
582	0.014265
594	0.00696403
606	0.0043806
618	0.00662706
630	0.0053915
642	0.00449292
654	0.0103337
666	0.0115693
678	0.0068517
690	0.0132541
702	0.0156129
714	0.0174101
726	0.0254973
738	0.0244864
750	0.0368419
762	0.0230262
774	0.0189826
786	0.0140404
798	0.0185333
810	0.0241494
822	0.0343708
834	0.0371789
846	0.0345955
858	0.036505
870	0.0360557
882	0.0498714
894	0.0568354
906	0.0513316
918	0.0595312
930	0.0557122
942	0.0529041
954	0.0561615
966	0.0651473
978	0.0874996
990	0.10929
1002	0.14894
1014	0.220265
1026	0.289906
1038	0.329331
1050	0.3728
1062	0.413012
1074	0.39212
1086	0.298779
1098	0.21274
1110	0.129284
1122	0.0934527
1134	0.0815465
1146	0.0786261
1158	0.0808726
1170	0.0830067
1182	0.115131
1194	0.139505
1206	0.101315
1218	0.0898584
1230	0.0840176
1242	0.0830067
1254	0.0935651
1266	0.10929
1278	0.114345
1290	0.111537
1302	0.107044
1314	0.0940144
1326	0.0878366
1338	0.112211
1350	0.133215
1362	0.14939
1374	0.182525
1386	0.211617
1398	0.13007
1410	0.0705388
1422	0.0633502
1434	0.0734592
1446	0.105696
1458	0.169495
1470	0.205214
1482	0.104573
1494	0.0424581
1506	0.0258343
1518	0.0181963
1530	0.0133664
1542	0.0132541
1554	0.00932281
1566	0.00718867
1578	0.00651473
1590	0.0053915
1602	0.00617776
1614	0.00494221
1626	0.00494221
1638	0.00718867
1650	0.01112
1662	0.00909816
1674	0.00932281
1686	0.00696403
1698	0.00797493
1710	0.00999675
1722	0.0102214
1734	0.0115693
1746	0.0110077
1758	0.0108953
1770	0.00988442
1782	0.00662706
1794	0.00561615
1806	0.00449292
1818	0.00348201
1830	0.00202181
1842	0.00101091
1854	0.00123555
1866	0.000786261
1878	0.000898584
1890	0.0014602
1902	0.00112323
1914	0.00134788
1926	0.00134788
1938	0.00157252
1950	0.0014602
1962	0.00112323
1974	0.00112323
1986	0.00157252
1998	0.00123555
2010	0.00179717
2022	0.00213414
2034	0.00247111
2046	0.00269575
2058	0.00202181
2070	0.00168484
2082	0.00101091
2094	0.000673938
2106	0.000673938
2118	0.000561615
2130	0.000673938
2142	0.000336969
2154	0.000336969
2166	0.000673938
2178	0.000898584
2190	0.00134788
2202	0.00123555
2214	0.000786261
2226	0.000898584
2238	0.000673938
2250	0.000898584
2262	0.000898584
2274	0.00112323
2286	0.00157252
2298	0.00202181
2310	0.00224646
2322	0.00213414
2334	0.00123555
2346	0.00336969
2358	0.00258343
2370	0.00202181
2382	0.00280808
2394	0.00213414
2406	0.00213414
2418	0.00213414
2430	0.00134788
2442	0.00168484
2454	0.0014602
2466	0.0014602
2478	0.00134788
2490	0.00202181
2502	0.00235878
2514	0.00314504
2526	0.00393131
2538	0.00572847
2550	0.007301
2562	0.00786261
2574	0.00921049
2586	0.0110077
2598	0.0131418
2610	0.0156129
2622	0.0188703
2634	0.0223523
2646	0.0272945
2658	0.0325737
2670	0.0407732
2682	0.0467264
2694	0.0541397
2706	0.0672815
2718	0.0857024
2730	0.104123
2742	0.119062
2754	0.127037
2766	0.149165
2778	0.185895
2790	0.254861
2802	0.408968
2814	0.446035
2826	0.343259
2838	0.272945
2850	0.266318
2862	0.341013
2874	0.524099
2886	0.64698
2898	0.529378
2910	0.592279
2922	0.727965
2934	0.920375
2946	1.10077
2958	0.993722
2970	1.08313
2982	0.524211
2994	0.189714
3006	0.101989
3018	0.0709881
3030	0.0541397
3042	0.040324
3054	0.0302149
3066	0.0247111
3078	0.0213414
3090	0.0195442
3102	0.0176347
3114	0.0157252
3126	0.0143773
3138	0.0143773
3150	0.0138157
3162	0.0137034
3174	0.0148266
3186	0.0155006
3198	0.0169608
3210	0.018421
3222	0.021903
3234	0.0238125
3246	0.0258343
3258	0.0252727
3270	0.0244864
3282	0.0228016
3294	0.0207798
3306	0.0197688
3318	0.0181963
3330	0.0169608
3342	0.0158375
3354	0.0141527
3366	0.0122432
3378	0.0117939
3390	0.00999675
3402	0.00909816
3414	0.00808726
3426	0.00673938
3438	0.00673938
3450	0.00595312
3462	0.00550383
3474	0.00449292
3486	0.00404363
3498	0.00258343
3510	0.00168484
3522	0.00157252
3534	0.00157252
3546	0.00134788
3558	0.00336969
3570	0.00235878
3582	0.00101091
3594	0.00202181
3606	0.00157252
3618	0.00247111
3630	0.00797493
3642	0.0133664
3654	0.0424581
3666	0.0652597
3678	0.058071
3690	0.021566
3702	0.00449292
3714	0.000561615
3726	0.000224646
3738	0.000224646
3750	0.000561615
3762	0.000224646
3774	0.000224646
3786	0.000224646
3798	0.000224646
3810	0.000224646
3822	0.000224646
3834	0.000224646
3846	0.000224646
3858	0.00101091
3870	0.000224646
3882	0.000224646
3894	0.000224646
3906	0.000224646
3918	0.000224646
3930	0.000224646
3942	0.000224646
3954	0.000224646
3966	0.000224646
