Infrared Spectrum: Heptanoic acid, 3-ethyl-3-methyl-
Formula: C 10 H 20 O 2
CAS: 70289-01-9
Origin: Sadtler Research Labs Under US-EPA Contract
1/CM	ABSORBANCE
450	0.0325798
462	0.0184117
474	0.00828184
486	0.00301158
498	0.0217655
510	0.0228606
522	0.0239558
534	0.0190277
546	0.0268989
558	0.0677606
570	0.10431
582	0.0770006
594	0.046611
606	0.0691294
618	0.121695
630	0.120805
642	0.072757
654	0.0472955
666	0.0448999
678	0.0649543
690	0.065981
702	0.029842
714	0.0127308
726	0.0195753
738	0.0107459
750	0.0282678
762	0.0175904
774	0.00999297
786	0.0193699
798	0.0132099
810	0.00807651
822	0.0021218
834	0.00362759
846	0.00903474
858	0.0113619
870	0.0140312
882	0.0149895
894	0.0174535
906	0.0221762
918	0.018001
930	0.0169059
942	0.015537
954	0.013689
966	0.0122517
978	0.0111565
990	0.0146472
1002	0.0237504
1014	0.029226
1026	0.0281993
1038	0.0334012
1050	0.0508546
1062	0.0826131
1074	0.148252
1086	0.213275
1098	0.33716
1110	0.49123
1122	0.321212
1134	0.166321
1146	0.136206
1158	0.162146
1170	0.199791
1182	0.178984
1194	0.135247
1206	0.0932905
1218	0.0688557
1230	0.064749
1242	0.0553036
1254	0.0478431
1266	0.0418883
1278	0.0390136
1290	0.0433941
1302	0.0515391
1314	0.0536609
1326	0.0600947
1338	0.0782326
1350	0.109717
1362	0.133126
1374	0.146335
1386	0.155918
1398	0.0746051
1410	0.0340856
1422	0.0350438
1434	0.0444208
1446	0.0558511
1458	0.0991084
1470	0.137711
1482	0.0611214
1494	0.0215602
1506	0.0104036
1518	0.0108828
1530	0.00451737
1542	0.00917163
1554	0.0102667
1566	0.00465426
1578	0.00376447
1590	0.0027378
1602	0.00718672
1614	0.00622849
1626	0.0054756
1638	0.00910318
1650	0.016769
1662	0.00492804
1674	0.0131414
1686	0.0162215
1698	0.0193699
1710	0.0308003
1722	0.0570147
1734	0.097671
1746	0.199791
1758	0.404784
1770	0.630105
1782	0.488287
1794	0.227511
1806	0.0977395
1818	0.044147
1830	0.0265567
1842	0.0151263
1854	0.0116356
1866	0.00704983
1878	0.00506493
1890	0.00513337
1902	0.00403826
1914	0.00458582
1926	0.00369603
1938	0.00444893
1950	0.00485959
1962	0.0041067
1974	0.00513337
1986	0.00383292
1998	0.00383292
2010	0.00513337
2022	0.00390136
2034	0.00479115
2046	0.00342225
2058	0.00342225
2070	0.00362759
2082	0.00369603
2094	0.00280625
2106	0.00321691
2118	0.00301158
2130	0.00349069
2142	0.00328536
2154	0.00335381
2166	0.00328536
2178	0.00451737
2190	0.00513337
2202	0.00533871
2214	0.0047227
2226	0.00396981
2238	0.00376447
2250	0.00451737
2262	0.00383292
2274	0.00321691
2286	0.00308003
2298	0.0027378
2310	0.0013689
2322	0.000342225
2334	0.000342225
2346	0.00054756
2358	0.00054756
2370	0.00068445
2382	0.00301158
2394	0.00417514
2406	0.00362759
2418	0.00403826
2430	0.00376447
2442	0.00362759
2454	0.00308003
2466	0.00266935
2478	0.00349069
2490	0.00328536
2502	0.00314847
2514	0.00246402
2526	0.00294313
2538	0.00369603
2550	0.00451737
2562	0.00431203
2574	0.00417514
2586	0.00396981
2598	0.00479115
2610	0.00485959
2622	0.00616005
2634	0.00574938
2646	0.00588627
2658	0.00670761
2670	0.00636539
2682	0.00616005
2694	0.00485959
2706	0.00561249
2718	0.00732362
2730	0.00841874
2742	0.00992453
2754	0.00971919
2766	0.00835029
2778	0.00965075
2790	0.0113619
2802	0.0145788
2814	0.0186855
2826	0.0253247
2838	0.0368919
2850	0.0607792
2862	0.133399
2874	0.226758
2886	0.25352
2898	0.217587
2910	0.230454
2922	0.312862
2934	0.45954
2946	0.524562
2958	0.431477
2970	0.684313
2982	0.43531
2994	0.137985
3006	0.0593418
3018	0.0365496
3030	0.02553
3042	0.0182064
3054	0.0145103
3066	0.0141681
3078	0.0132099
3090	0.0123885
3102	0.0110196
3114	0.0102667
3126	0.0101983
3138	0.00978763
3150	0.00882941
3162	0.00876096
3174	0.00971919
3186	0.0112934
3198	0.0104721
3210	0.00828184
3222	0.00814496
3234	0.00903474
3246	0.00855563
3258	0.00848718
3270	0.00800806
3282	0.00773428
3294	0.00930852
3306	0.00862407
3318	0.00910318
3330	0.00759739
3342	0.00800806
3354	0.00862407
3366	0.00978763
3378	0.00828184
3390	0.00793962
3402	0.00903474
3414	0.00855563
3426	0.00965075
3438	0.00759739
3450	0.00766584
3462	0.0082134
3474	0.00862407
3486	0.00862407
3498	0.00807651
3510	0.00992453
3522	0.0119094
3534	0.0138259
3546	0.018001
3558	0.0555089
3570	0.326483
3582	0.107253
3594	0.0182064
3606	0.00882941
3618	0.00930852
3630	0.0114988
3642	0.00691295
3654	0.0164268
3666	0.00219024
3678	0.0125254
3690	0.0134837
3702	0.0047227
3714	0.0095823
3726	0.00766584
3738	0.00930852
3750	0.015537
3762	0.00513337
3774	0.0121832
3786	0.0117041
3798	0.0140312
3810	0.0041067
3822	0.0203966
3834	0.0123201
3846	0.00848718
3858	0.0180695
3870	0.0152632
3882	0.00841874
3894	0.0127308
3906	0.0156055
3918	0.00937696
3930	0.00773428
3942	0.00725517
3954	0.0138943
3966	0.015537
