Infrared Spectrum: Hydrocinnamonitrile, p-chloro-.beta.-ethyl-.beta.-methyl-
Formula: C 12 H 14 Cl N
CAS: 70289-03-1
Origin: Sadtler Research Labs Under US-EPA Contract
1/CM	ABSORBANCE
450	0
462	0.0511591
474	0.0477223
486	0.075904
498	0.0960828
510	0.0696686
522	0.0765913
534	0.0889147
546	0.0685394
558	0.0677539
570	0.0628933
582	0.0401122
594	0.0531721
606	0.0434017
618	0.0535157
630	0.046544
642	0.0386884
654	0.0465931
666	0.0343188
678	0.0395231
690	0.0456602
702	0.0509627
714	0.0534175
726	0.103938
738	0.140663
750	0.0884728
762	0.0420761
774	0.0497844
786	0.0628442
798	0.0605366
810	0.1169
822	0.27676
834	0.137373
846	0.0783588
858	0.0500298
870	0.0573944
882	0.0647589
894	0.0650044
906	0.0791935
918	0.0748238
930	0.0753639
942	0.0740383
954	0.0667228
966	0.056167
978	0.0479678
990	0.0434017
1002	0.0964265
1014	0.324973
1026	0.0552832
1038	0.0376574
1050	0.0505699
1062	0.0415852
1074	0.0489988
1086	0.114543
1098	0.262914
1110	0.358604
1122	0.0892092
1134	0.0471822
1146	0.0435981
1158	0.0417815
1170	0.0406523
1182	0.0382466
1194	0.0421743
1206	0.0540067
1218	0.0732036
1230	0.0656427
1242	0.0600456
1254	0.0584745
1266	0.057689
1278	0.0540558
1290	0.0503735
1302	0.0524356
1314	0.0673611
1326	0.0738419
1338	0.0608312
1350	0.0492443
1362	0.0465931
1374	0.0574926
1386	0.117636
1398	0.131482
1410	0.0818447
1422	0.0781133
1434	0.108848
1446	0.0854779
1458	0.139092
1470	0.205078
1482	0.217598
1494	0.417128
1506	0.268511
1518	0.0722708
1530	0.0525338
1542	0.0532702
1554	0.0493916
1566	0.0484096
1578	0.056167
1590	0.0672629
1602	0.0701596
1614	0.0474277
1626	0.0433527
1638	0.0515028
1650	0.0475259
1662	0.0338278
1674	0.0360863
1686	0.0385411
1698	0.0409469
1710	0.0352516
1722	0.0380993
1734	0.0416834
1746	0.0424198
1758	0.0463967
1770	0.0489988
1782	0.0406523
1794	0.0383448
1806	0.03643
1818	0.0356444
1830	0.0376083
1842	0.037461
1854	0.0363809
1866	0.038983
1878	0.0424198
1890	0.052141
1902	0.0468385
1914	0.0396704
1926	0.0358899
1938	0.0354971
1950	0.035448
1962	0.034908
1974	0.0343679
1986	0.0345152
1998	0.0347116
2010	0.0346625
2022	0.0341715
2034	0.0334842
2046	0.0340242
2058	0.0334351
2070	0.0332878
2082	0.033386
2094	0.0338278
2106	0.033926
2118	0.0338278
2130	0.0330914
2142	0.0329932
2154	0.0329932
2166	0.033386
2178	0.0330914
2190	0.0331405
2202	0.0335823
2214	0.0335823
2226	0.0340733
2238	0.038492
2250	0.0436472
2262	0.0388848
2274	0.0351044
2286	0.0337787
2298	0.0343679
2310	0.0352025
2322	0.0352025
2334	0.0320603
2346	0.031373
2358	0.0317658
2370	0.0335333
2382	0.0334351
2394	0.0332387
2406	0.0334842
2418	0.0332878
2430	0.0331896
2442	0.0323058
2454	0.0315694
2466	0.0322567
2478	0.0329932
2490	0.0333369
2502	0.0334351
2514	0.0331896
2526	0.0333369
2538	0.0336805
2550	0.0329932
2562	0.0334842
2574	0.0348098
2586	0.0355462
2598	0.0362336
2610	0.0353007
2622	0.0350062
2634	0.0341224
2646	0.0334842
2658	0.0330423
2670	0.0333369
2682	0.034417
2694	0.034417
2706	0.0338278
2718	0.0343679
2730	0.0337296
2742	0.0347116
2754	0.035939
2766	0.0354971
2778	0.0351044
2790	0.0370682
2802	0.0387375
2814	0.0395231
2826	0.0422725
2838	0.0481151
2850	0.0547923
2862	0.0665264
2874	0.102564
2886	0.144296
2898	0.158092
2910	0.127554
2922	0.169483
2934	0.246663
2946	0.26586
2958	0.233358
2970	0.315399
2982	0.49097
2994	0.224226
3006	0.0908295
3018	0.0616167
3030	0.0634333
3042	0.0773769
3054	0.0697177
3066	0.0632369
3078	0.0612731
3090	0.0775733
3102	0.0788498
3114	0.0559215
3126	0.0406523
3138	0.0363318
3150	0.0347116
3162	0.0331896
3174	0.0332387
3186	0.0329441
3198	0.0340242
3210	0.0343188
3222	0.0340733
3234	0.032895
3246	0.0326004
3258	0.034417
3270	0.0352025
3282	0.0355953
3294	0.0361845
3306	0.0367246
3318	0.0370191
3330	0.0361845
3342	0.0353498
3354	0.034417
3366	0.0353498
3378	0.034908
3390	0.0343679
3402	0.0336314
3414	0.0334842
3426	0.0340242
3438	0.0339751
3450	0.0327968
3462	0.0332387
3474	0.0343679
3486	0.0344661
3498	0.0325022
3510	0.0323549
3522	0.0334842
3534	0.0332387
3546	0.032895
3558	0.0316676
3570	0.0334351
3582	0.034417
3594	0.0348589
3606	0.0332387
3618	0.0332387
3630	0.0350553
3642	0.0331405
3654	0.0345152
3666	0.0314221
3678	0.0338278
3690	0.0351535
3702	0.0345643
3714	0.0336805
3726	0.0325022
3738	0.0315694
3750	0.0365773
3762	0.0316676
3774	0.0323058
3786	0.0321094
3798	0.0344661
3810	0.034908
3822	0.0345643
3834	0.0340242
3846	0.0337787
3858	0.0347116
3870	0.0305874
3882	0.0327477
3894	0.0334351
3906	0.0354971
3918	0.0338769
3930	0.0328459
3942	0.0339751
3954	0.0330423
3966	0.0345643
