Infrared Spectrum: Pyridine, 4-(2-methoxyethyl)-,
Formula: C 8 H 11 N O
CAS: 70289-28-0
Origin: Sadtler Research Labs Under US-EPA Contract
1/CM	ABSORBANCE
450	0.0218766
462	0.026558
474	0.0379914
486	0.0475343
498	0.0574372
510	0.0749925
522	0.056807
534	0.0397919
546	0.030159
558	0.0372712
570	0.0716615
582	0.126308
594	0.0781434
606	0.0225067
618	0.0156647
630	0.00711213
642	0.00837251
654	0.00945283
666	0
678	0.0101731
690	0.00495149
702	0.00711213
714	0.0103531
726	0.0126038
738	0.0144043
750	0.0442933
762	0.0613984
774	0.108212
786	0.127388
798	0.181584
810	0.162049
822	0.0979494
834	0.0805742
846	0.0429429
858	0.0249375
870	0.0120636
882	0.0174652
894	0.00819246
906	0.0135041
918	0.0277283
930	0.0415024
942	0.0507752
954	0.0572572
966	0.0684205
978	0.0831849
990	0.143323
1002	0.112354
1014	0.0645494
1026	0.056717
1038	0.0546464
1050	0.0679704
1062	0.0956087
1074	0.13342
1086	0.16745
1098	0.308072
1110	0.59922
1122	0.863899
1134	0.749475
1146	0.307712
1158	0.174292
1170	0.157547
1182	0.194638
1194	0.212104
1206	0.19869
1218	0.187976
1230	0.114244
1242	0.0722917
1254	0.0604081
1266	0.0505051
1278	0.0364609
1290	0.0294388
1302	0.0272782
1314	0.0318696
1326	0.0388917
1338	0.0460938
1350	0.0440232
1362	0.0597779
1374	0.129729
1386	0.179424
1398	0.136391
1410	0.161598
1422	0.157187
1434	0.0990297
1446	0.0826448
1458	0.103171
1470	0.0978593
1482	0.0792238
1494	0.0729219
1506	0.0469941
1518	0.0270981
1530	0.0261979
1542	0.0614884
1554	0.102721
1566	0.135311
1578	0.13495
1590	0.286736
1602	0.579774
1614	0.219126
1626	0.0327698
1638	0.0238572
1650	0.0180954
1662	0.0191758
1674	0.013324
1686	0.0140442
1698	0.0108933
1710	0.0104431
1722	0.00855256
1734	0.0117035
1746	0.00918275
1758	0.0125138
1770	0.0150345
1782	0.0112534
1794	0.00891267
1806	0.00414124
1818	0.00612184
1830	0.00972292
1842	0.010083
1854	0.00639192
1866	0.00297089
1878	0.00189057
1890	0.00594178
1902	0.00810243
1914	0.0162049
1926	0.0262879
1938	0.0237671
1950	0.0155747
1962	0.0115235
1974	0.00846254
1986	0.00684205
1998	0.0056717
2010	0.00639192
2022	0.00693208
2034	0.00846254
2046	0.00828248
2058	0.00828248
2070	0.00954286
2082	0.0105332
2094	0.0116135
2106	0.0104431
2118	0.00945283
2130	0.00684205
2142	0.00486146
2154	0.00495149
2166	0.00513154
2178	0.00387116
2190	0.00414124
2202	0.00423127
2214	0.00279084
2226	0.00297089
2238	0.00297089
2250	0.00243073
2262	0.00243073
2274	0.00189057
2286	0.00324097
2298	0.00360108
2310	0.00450135
2322	0.00396119
2334	0.003331
2346	0.00189057
2358	0.00252076
2370	0.00189057
2382	0.00216065
2394	0.00288086
2406	0.00342103
2418	0.00369111
2430	0.00315095
2442	0.00315095
2454	0.00225067
2466	0.00207062
2478	0.000990297
2490	0.000630189
2502	9.0027e-05
2514	0.000540162
2526	0.000990297
2538	0.000990297
2550	0.00126038
2562	0.00171051
2574	0.00270081
2586	0.00414124
2598	0.00531159
2610	0.00585176
2622	0.00594178
2634	0.00648194
2646	0.00738221
2658	0.00792238
2670	0.00909273
2682	0.00909273
2694	0.00918275
2706	0.0126038
2718	0.019896
2730	0.0306092
2742	0.0384415
2754	0.0320496
2766	0.0286286
2778	0.0325898
2790	0.0475343
2802	0.0819246
2814	0.16745
2826	0.260268
2838	0.288987
2850	0.257207
2862	0.327248
2874	0.438251
2886	0.414754
2898	0.323647
2910	0.317435
2922	0.344263
2934	0.408452
2946	0.369291
2958	0.305192
2970	0.240732
2982	0.224437
2994	0.29898
3006	0.221646
3018	0.168711
3030	0.220026
3042	0.176633
3054	0.173212
3066	0.218946
3078	0.208503
3090	0.112084
3102	0.0479844
3114	0.0237671
3126	0.0101731
3138	0.006662
3150	0.00405121
3162	0.00261078
3174	0.00225067
3186	0.00216065
3198	0.00189057
3210	0.00135041
3222	0.00180054
3234	0.00117035
3246	0.000990297
3258	0.00153046
3270	0.000630189
3282	0.00153046
3294	0.00171051
3306	0.00189057
3318	0.00117035
3330	0.00090027
3342	0.000810243
3354	0.000360108
3366	0.00126038
3378	0.00162049
3390	0.000990297
3402	0.00189057
3414	0.00162049
3426	0.000540162
3438	0.00117035
3450	0.00216065
3462	0.00207062
3474	0.00144043
3486	0.00144043
3498	0.00135041
3510	0.00180054
3522	0.00117035
3534	0.00189057
3546	0.00288086
3558	0.000990297
3570	0.006662
3582	0.00522157
3594	0.00522157
3606	0.00243073
3618	0.00495149
3630	0.00639192
3642	0.00522157
3654	0.00558167
3666	0.00369111
3678	0.00927278
3690	0.00774232
3702	0.00837251
3714	0.00828248
3726	0.00828248
3738	0.0103531
3750	0.00792238
3762	0.00810243
3774	0.00648194
3786	0.00576173
3798	0.00702211
3810	0.00810243
3822	0.00891267
3834	0.00918275
3846	0.0090027
3858	0.00792238
3870	0.00927278
3882	0.00783235
3894	0.00882265
3906	0.00720216
3918	0.00783235
3930	0.00855256
3942	0.00927278
3954	0.00936281
3966	0.00747224
