Infrared Spectrum: Pyridine, 2-(octyloxy)-
Formula: C 13 H 21 N O
CAS: 70289-27-9
Origin: Sadtler Research Labs Under US-EPA Contract
1/CM	ABSORBANCE
450	0.0139183
462	0.0318132
474	0.00610699
486	0.0268423
498	0.055531
510	0.055531
522	0.0380622
534	0.0357898
546	0.0232918
558	0.0282626
570	0.0343696
582	0.0194572
594	0.0355057
606	0.0461575
618	0.0477197
630	0.0296828
642	0.0279785
654	0.0224396
666	0.0227237
678	0.02457
690	0.0222976
702	0.0285466
714	0.0580874
726	0.0965756
738	0.149124
750	0.0893325
762	0.135916
774	0.341707
786	0.273252
798	0.104103
810	0.0637683
822	0.0552469
834	0.0609279
846	0.0687391
858	0.0643364
870	0.0445952
882	0.0482878
894	0.0465835
906	0.0539687
918	0.055389
930	0.0522645
942	0.0592236
954	0.0890484
966	0.121856
978	0.153953
990	0.255925
1002	0.23661
1014	0.274957
1026	0.230503
1038	0.277513
1050	0.315575
1062	0.195424
1074	0.136342
1086	0.0952974
1098	0.0585135
1110	0.0445952
1122	0.049566
1134	0.112482
1146	0.14529
1158	0.0417548
1170	0.0312451
1182	0.0346536
1194	0.0407606
1206	0.0509863
1218	0.0774025
1230	0.136626
1242	0.301515
1254	0.524775
1266	0.811803
1278	0.767776
1290	1.38671
1302	0.534575
1314	0.815922
1326	0.35591
1338	0.156083
1350	0.103677
1362	0.112624
1374	0.198548
1386	0.20991
1398	0.100978
1410	0.0999842
1422	0.273678
1434	1.22907
1446	0.417264
1458	0.374089
1470	0.996717
1482	0.772037
1494	0.221414
1506	0.109642
1518	0.0461575
1530	0.0416127
1542	0.0570932
1554	0.122282
1566	0.321398
1578	0.442828
1590	0.652454
1602	0.869181
1614	0.415275
1626	0.116175
1638	0.0457314
1650	0.0264163
1662	0.0188891
1674	0.0154805
1686	0.0156225
1698	0.0139183
1710	0.0139183
1722	0.0161906
1734	0.0160486
1746	0.0112198
1758	0.0109358
1770	0.00667508
1782	0.0110778
1794	0.00979959
1806	0.0149124
1818	0.0157646
1830	0.012498
1842	0.0151965
1854	0.00823733
1866	0.00596497
1878	0.00653306
1890	0.00965756
1902	0.0174688
1914	0.0151965
1926	0.0153385
1938	0.012072
1950	0.0140603
1962	0.012498
1974	0.00497081
1986	0.00397664
1998	0.00411867
2010	0.00568092
2022	0.00667508
2034	0.00596497
2046	0.00610699
2058	0.00639103
2070	0.00781126
2082	0.00852138
2094	0.0086634
2106	0.00724317
2118	0.00766924
2130	0.00795329
2142	0.0055389
2154	0.00397664
2166	0.00213035
2178	0.00255641
2190	0.00156225
2202	0.00156225
2214	0.000142023
2226	0.00170428
2238	0.00468676
2250	0.00227237
2262	0.00170428
2274	0.00326653
2286	0.00710115
2298	0.00497081
2310	0.00326653
2322	0.00411867
2334	0.00397664
2346	0.00568092
2358	0.00198832
2370	0.0018463
2382	0.00241439
2394	0.00397664
2406	0.00440271
2418	0.00383462
2430	0.00426069
2442	0.00397664
2454	0.00426069
2466	0.00255641
2478	0.00227237
2490	0.0036926
2502	0.00582294
2514	0.00852138
2526	0.00880543
2538	0.0116459
2550	0.0169007
2562	0.0205933
2574	0.0204513
2586	0.0137762
2598	0.0107937
2610	0.0103677
2622	0.00965756
2634	0.0086634
2646	0.00852138
2658	0.0107937
2670	0.0129241
2682	0.0147704
2694	0.0143443
2706	0.0142023
2718	0.0167587
2730	0.018747
2742	0.0221556
2754	0.0208774
2766	0.0215875
2778	0.0228657
2790	0.0284046
2802	0.0349377
2814	0.0460155
2826	0.0650465
2838	0.0962916
2850	0.200394
2862	0.482026
2874	0.484582
2886	0.395676
2898	0.366845
2910	0.522503
2922	0.853274
2934	1.37777
2946	1.13888
2958	0.802856
2970	0.761243
2982	0.350087
2994	0.161906
3006	0.103393
3018	0.11376
3030	0.128815
3042	0.0842196
3054	0.0974278
3066	0.112908
3078	0.124128
3090	0.136058
3102	0.0612119
3114	0.0261322
3126	0.0137762
3138	0.0129241
3150	0.012214
3162	0.0127821
3174	0.0103677
3186	0.00823733
3198	0.0073852
3210	0.00525485
3222	0.00468676
3234	0.00156225
3246	0.00326653
3258	0.00269844
3270	0.00426069
3282	0.00340855
3294	0.00198832
3306	0.00383462
3318	0.00383462
3330	0.00426069
3342	0.00312451
3354	0.00312451
3366	0.00468676
3378	0.00539687
3390	0.00497081
3402	0.00241439
3414	0.00525485
3426	0.00426069
3438	0.00639103
3450	0.00355057
3462	0.00383462
3474	0.00525485
3486	0.00454474
3498	0.00482878
3510	0.00213035
3522	0.00468676
3534	0.00568092
3546	0.00667508
3558	0.00383462
3570	0.00326653
3582	0.00454474
3594	0.0055389
3606	0.00695913
3618	0.00255641
3630	0.00326653
3642	0.00639103
3654	0.00582294
3666	0.00795329
3678	0
3690	0.00198832
3702	0.00724317
3714	0.0068171
3726	0.00582294
3738	0.00355057
3750	0.00468676
3762	0.0055389
3774	0.00710115
3786	0.00667508
3798	0.00525485
3810	0.00965756
3822	0.00198832
3834	0.00568092
3846	0.00710115
3858	0.00397664
3870	0.00766924
3882	0.00823733
3894	0.00639103
3906	0.00269844
3918	0.00880543
3930	0.0086634
3942	0.00752722
3954	0.00411867
3966	0.00397664
