Infrared Spectrum: Hexanoic acid, 2-cyano-3-ethyl-3-methyl-, ethyl ester
Formula: C 12 H 21 N O 2
CAS: 70289-02-0
Origin: Sadtler Research Labs Under US-EPA Contract
1/CM	ABSORBANCE
450	0.0205303
462	0.0184398
474	0.00589644
486	0.0080406
498	0.005414
510	0.0124361
522	0.00739735
534	0.00712933
546	0.00755816
558	0.00332345
570	0.00611086
582	0.00546761
594	0.00991674
606	0.00975593
618	0.00503878
630	0.00986314
642	0.00573563
654	0.0109888
666	0.00460994
678	0.0177965
690	0.00423472
702	0.00895187
714	0.0126505
726	0.0239074
738	0.0207447
750	0.0224065
762	0.0179573
774	0.0226745
786	0.0261588
798	0.0231033
810	0.018279
822	0.0127041
834	0.0153843
846	0.0231033
858	0.0322696
870	0.0277669
882	0.0187078
894	0.0140979
906	0.0158132
918	0.0135082
930	0.0174213
942	0.0206911
954	0.0244434
966	0.0198871
978	0.0210128
990	0.0301791
1002	0.0408999
1014	0.0697924
1026	0.132724
1038	0.201444
1050	0.106297
1062	0.0622878
1074	0.0531752
1086	0.0631455
1098	0.0918773
1110	0.0740807
1122	0.078101
1134	0.173248
1146	0.22042
1158	0.189758
1170	0.25612
1182	0.286245
1194	0.234839
1206	0.179145
1218	0.200265
1230	0.339421
1242	0.374585
1254	0.261266
1266	0.171694
1278	0.126934
1290	0.111604
1302	0.118411
1314	0.137387
1326	0.133635
1338	0.0712397
1350	0.0391845
1362	0.0443305
1374	0.0837831
1386	0.0872673
1398	0.0782082
1410	0.0354322
1422	0.0287853
1434	0.0338777
1446	0.0531752
1458	0.0888218
1470	0.135296
1482	0.0711325
1494	0.0258371
1506	0.0124361
1518	0.0149019
1530	0.0107208
1542	0.0107744
1554	0.0121681
1566	0.00879106
1578	0.00916628
1590	0.00680771
1602	0.0117929
1614	0.0107208
1626	0.0103992
1638	0.0127578
1650	0.0195655
1662	0.00766537
1674	0.01651
1686	0.0160276
1698	0.0194583
1710	0.0308223
1722	0.0444913
1734	0.0776186
1746	0.303399
1758	0.531216
1770	0.297073
1782	0.08582
1794	0.0343602
1806	0.019083
1818	0.0139906
1830	0.0124361
1842	0.0080406
1854	0.00975593
1866	0.00836222
1878	0.00927349
1890	0.00889826
1902	0.00745096
1914	0.00718294
1926	0.00611086
1938	0.00653969
1950	0.00600365
1962	0.00418111
1974	0.0066469
1986	0.00573563
1998	0.00605725
2010	0.00718294
2022	0.00568202
2034	0.00712933
2046	0.0067541
2058	0.00653969
2070	0.00680771
2082	0.00680771
2094	0.00632527
2106	0.00637888
2118	0.00637888
2130	0.00584284
2142	0.00557482
2154	0.00546761
2166	0.00557482
2178	0.00600365
2190	0.00557482
2202	0.00552121
2214	0.00514598
2226	0.00578923
2238	0.00691492
2250	0.00986314
2262	0.00632527
2274	0.00498517
2286	0.00428832
2298	0.00337705
2310	0.0013401
2322	0.000696852
2334	0.000321624
2346	0.00337705
2358	0.0013401
2370	0.00107208
2382	0.00418111
2394	0.00573563
2406	0.00562842
2418	0.00611086
2430	0.00557482
2442	0.00514598
2454	0.00428832
2466	0.00428832
2478	0.00466355
2490	0.00428832
2502	0.00450274
2514	0.00391309
2526	0.00380588
2538	0.00385949
2550	0.00466355
2562	0.00418111
2574	0.00428832
2586	0.00455634
2598	0.00460994
2610	0.00498517
2622	0.00546761
2634	0.00471715
2646	0.00455634
2658	0.00460994
2670	0.00353786
2682	0.00375228
2694	0.00300182
2706	0.00369868
2718	0.00364507
2730	0.005414
2742	0.00745096
2754	0.00766537
2766	0.0067541
2778	0.0067541
2790	0.00734375
2802	0.00841583
2814	0.01056
2826	0.0143123
2838	0.0191366
2850	0.0271772
2862	0.0463675
2874	0.0871601
2886	0.164028
2898	0.139478
2910	0.125969
2922	0.15186
2934	0.202945
2946	0.295519
2958	0.243094
2970	0.426902
2982	0.432745
2994	0.23114
3006	0.101365
3018	0.0514062
3030	0.0285173
3042	0.0188686
3054	0.0130794
3066	0.0109888
3078	0.0093271
3090	0.00836222
3102	0.00761177
3114	0.00686131
3126	0.00739735
3138	0.00761177
3150	0.00702212
3162	0.00750456
3174	0.00793339
3186	0.00852304
3198	0.00761177
3210	0.00745096
3222	0.00841583
3234	0.00927349
3246	0.00863024
3258	0.00825502
3270	0.00836222
3282	0.00846943
3294	0.00954151
3306	0.00879106
3318	0.00927349
3330	0.00889826
3342	0.00916628
3354	0.0093271
3366	0.00954151
3378	0.00916628
3390	0.0093807
3402	0.0107208
3414	0.0104528
3426	0.0109888
3438	0.0102384
3450	0.00986314
3462	0.0102384
3474	0.0106672
3486	0.0125433
3498	0.011364
3510	0.0111496
3522	0.0103456
3534	0.0093271
3546	0.0114177
3558	0.00916628
3570	0.0123825
3582	0.00766537
3594	0.0137762
3606	0.00761177
3618	0.0103456
3630	0.0151699
3642	0.00723654
3654	0.0203695
3666	0.00337705
3678	0.0146339
3690	0.0201551
3702	0.00916628
3714	0.0134546
3726	0.011096
3738	0.0136154
3750	0.0257835
3762	0.00959512
3774	0.0148483
3786	0.0133474
3798	0.0183326
3810	0.00471715
3822	0.0232641
3834	0.0135618
3846	0.0112568
3858	0.0220848
3870	0.0160812
3882	0.0119001
3894	0.0107208
3906	0.0184398
3918	0.0115249
3930	0.0105064
3942	0.0093271
3954	0.0112032
3966	0.00916628
