Infrared Spectrum: Propane, 1,2-dibromo-2,3-dichloro-,
Formula: C 3 H 4 Br 2 Cl 2
CAS: 70289-31-5
Origin: Sadtler Research Labs Under US-EPA Contract
1/CM	ABSORBANCE
450	0
462	0.0222433
474	0.0244075
486	0.0103401
498	0.0381142
510	0.024648
522	0.0281949
534	0.0549469
546	0.0595759
558	0.059095
570	0.22622
582	0.294273
594	0.230669
606	0.0738237
618	0.0829615
630	0.187084
642	0.4421
654	0.574538
666	0.191413
678	0.134001
690	0.286938
702	0.392023
714	0.225619
726	0.0756272
738	0.0913177
750	0.230489
762	0.311827
774	0.149331
786	0.0761682
798	0.0554279
810	0.0390761
822	0.0320424
834	0.0242272
846	0.0352286
858	0.111397
870	0.154922
882	0.10803
894	0.12342
906	0.319582
918	0.407233
930	0.0966681
942	0.0716595
954	0.0742445
966	0.118491
978	0.223034
990	0.101237
1002	0.0651067
1014	0.0491156
1026	0.0227843
1038	0.0233855
1050	0.0211011
1062	0.0239266
1074	0.0343869
1086	0.036491
1098	0.047252
1110	0.0997341
1122	0.095045
1134	0.0338459
1146	0.0244676
1158	0.025189
1170	0.0363107
1182	0.0574719
1194	0.174039
1206	0.174399
1218	0.153539
1230	0.104303
1242	0.132979
1254	0.0933617
1266	0.0432842
1278	0.0919189
1290	0.124382
1302	0.0337256
1314	0.0186964
1326	0.0160512
1338	0.0158108
1350	0.0148489
1362	0.0173738
1374	0.0160512
1386	0.0165322
1398	0.0224236
1410	0.0890333
1422	0.432782
1434	0.281949
1446	0.0311406
1458	0.022604
1470	0.0204398
1482	0.0144281
1494	0.0162316
1506	0.018997
1518	0.0156304
1530	0.0150894
1542	0.0171935
1554	0.0116627
1566	0.0152697
1578	0.0203195
1590	0.0119633
1602	0.0126847
1614	0.0156304
1626	0.0153298
1638	0.0180351
1650	0.0173137
1662	0.013346
1674	0.01539
1686	0.0132859
1698	0.0172536
1710	0.011302
1722	0.0125043
1734	0.0135864
1746	0.0150894
1758	0.0132859
1770	0.0124442
1782	0.0113621
1794	0.012865
1806	0.0108812
1818	0.00967884
1830	0.0105806
1842	0.0108812
1854	0.00907767
1866	0.0099193
1878	0.00949849
1890	0.0101598
1902	0.00913778
1914	0.00925802
1926	0.00871697
1938	0.00943837
1950	0.00979907
1962	0.00943837
1974	0.00961872
1986	0.00913778
1998	0.00859673
2010	0.00895743
2022	0.00901755
2034	0.00907767
2046	0.00877708
2058	0.00877708
2070	0.00937825
2082	0.00967884
2094	0.0102199
2106	0.0107008
2118	0.0107008
2130	0.00943837
2142	0.00859673
2154	0.00871697
2166	0.00799556
2178	0.00829615
2190	0.00835626
2202	0.00907767
2214	0.00925802
2226	0.00943837
2238	0.00799556
2250	0.00835626
2262	0.00901755
2274	0.0100997
2286	0.0122639
2298	0.0115425
2310	0.011302
2322	0.00937825
2334	0.00841638
2346	0.00715392
2358	0.00757474
2370	0.00739439
2382	0.00871697
2394	0.00805568
2406	0.00823603
2418	0.00751463
2430	0.00733427
2442	0.00751463
2454	0.00781521
2466	0.00799556
2478	0.00781521
2490	0.00829615
2502	0.00745451
2514	0.00661287
2526	0.00721404
2538	0.00703369
2550	0.00625217
2562	0.00613193
2574	0.00577123
2586	0.00571112
2598	0.00523018
2610	0.005651
2622	0.00595158
2634	0.00697357
2646	0.00715392
2658	0.00691345
2670	0.00679322
2682	0.005651
2694	0.00523018
2706	0.00757474
2718	0.00679322
2730	0.00523018
2742	0.00510995
2754	0.00517006
2766	0.00517006
2778	0.00559088
2790	0.00492959
2802	0.00553076
2814	0.00661287
2826	0.0117228
2838	0.0156304
2850	0.011843
2862	0.00781521
2874	0.00793544
2886	0.00799556
2898	0.00703369
2910	0.00841638
2922	0.0100395
2934	0.0117228
2946	0.0165923
2958	0.0367315
2970	0.0660085
2982	0.0841037
2994	0.0345673
3006	0.00823603
3018	0.00865685
3030	0.0113621
3042	0.0155102
3054	0.00961872
3066	0.00583135
3078	0.00649264
3090	0.00613193
3102	0.00589147
3114	0.00577123
3126	0.0052903
3138	0.00547065
3150	0.00559088
3162	0.00577123
3174	0.00541053
3186	0.00589147
3198	0.00631228
3210	0.00559088
3222	0.00607182
3234	0.00595158
3246	0.00547065
3258	0.00619205
3270	0.0063724
3282	0.0063724
3294	0.00643252
3306	0.00721404
3318	0.00619205
3330	0.00691345
3342	0.00583135
3354	0.00727416
3366	0.00745451
3378	0.00547065
3390	0.00613193
3402	0.00661287
3414	0.00655275
3426	0.00655275
3438	0.00571112
3450	0.00462901
3462	0.00643252
3474	0.00559088
3486	0.00613193
3498	0.00631228
3510	0.00595158
3522	0.00553076
3534	0.00553076
3546	0.00571112
3558	0.00541053
3570	0.00697357
3582	0.00504983
3594	0.00504983
3606	0.005651
3618	0.00733427
3630	0.00715392
3642	0.00595158
3654	0.00757474
3666	0.00480936
3678	0.00739439
3690	0.00853661
3702	0.0060117
3714	0.00583135
3726	0.00498971
3738	0.00769498
3750	0.00907767
3762	0.00426831
3774	0.00486948
3786	0.00631228
3798	0.00649264
3810	0.00426831
3822	0.0105205
3834	0.00607182
3846	0.00607182
3858	0.00907767
3870	0.00763486
3882	0.00583135
3894	0.00679322
3906	0.0107609
3918	0.00865685
3930	0.00715392
3942	0.00697357
3954	0.00949849
3966	0.00661287
