Infrared Spectrum: 2-Norbornaneethanol
Formula: C 9 H 16 N
CAS: 70289-06-4
Origin: Sadtler Research Labs Under US-EPA Contract
1/CM	ABSORBANCE
450	0
462	0.0463591
474	0.0235446
486	0.0323053
498	0.0302977
510	0.0414311
522	0.0348606
534	0.0142362
546	0.0182516
558	0.0102209
570	0.0206243
582	0.0239096
594	0.0260998
606	0.0138712
618	0.0158789
630	0.0111335
642	0.0142362
654	0.0219019
666	0.0217194
678	0.0147838
690	0.016609
702	0.0135062
714	0.0131412
726	0.016974
738	0.00857825
750	0.0187991
762	0.0180691
774	0.0158789
786	0.0244571
798	0.0251872
810	0.0180691
822	0.0209893
834	0.0310277
846	0.0326704
858	0.0337655
870	0.0312102
882	0.0419787
894	0.033948
906	0.0354081
918	0.0536597
930	0.0545723
942	0.0507394
954	0.0463591
966	0.0443514
978	0.0713638
990	0.0939957
1002	0.109145
1014	0.136339
1026	0.215004
1038	0.284907
1050	0.327434
1062	0.317395
1074	0.187809
1086	0.085235
1098	0.0664358
1110	0.0642456
1122	0.0600478
1134	0.0571275
1146	0.0507394
1158	0.045994
1170	0.0458115
1182	0.0501919
1194	0.0547548
1206	0.0596827
1218	0.0731889
1230	0.0677134
1242	0.0580401
1254	0.0598652
1266	0.0662533
1278	0.0675309
1290	0.0658883
1302	0.0658883
1314	0.0668009
1326	0.0589527
1338	0.0604128
1350	0.05658
1362	0.0545723
1374	0.068991
1386	0.0903454
1398	0.0854175
1410	0.0540247
1422	0.0439864
1434	0.0520171
1446	0.079942
1458	0.119913
1470	0.0932657
1482	0.0662533
1494	0.0312102
1506	0.0180691
1518	0.0167915
1530	0.0156964
1542	0.0135062
1554	0.0138712
1566	0.0120461
1578	0.0129586
1590	0.010951
1602	0.0111335
1614	0.011681
1626	0.0107684
1638	0.0107684
1650	0.0102209
1662	0.00930832
1674	0.0102209
1686	0.0091258
1698	0.0102209
1710	0.0104034
1722	0.00930832
1734	0.00930832
1746	0.00949083
1758	0.00985586
1770	0.00949083
1782	0.0091258
1794	0.00894328
1806	0.0091258
1818	0.00839574
1830	0.00930832
1842	0.00876077
1854	0.0091258
1866	0.00949083
1878	0.00876077
1890	0.0091258
1902	0.00894328
1914	0.00839574
1926	0.00876077
1938	0.00876077
1950	0.00821322
1962	0.00876077
1974	0.00821322
1986	0.00839574
1998	0.00857825
2010	0.00839574
2022	0.00894328
2034	0.0091258
2046	0.0100384
2058	0.0102209
2070	0.010951
2082	0.0100384
2094	0.00930832
2106	0.00857825
2118	0.00894328
2130	0.00821322
2142	0.00784819
2154	0.0080307
2166	0.00766567
2178	0.00857825
2190	0.00930832
2202	0.0080307
2214	0.00839574
2226	0.00784819
2238	0.00821322
2250	0.00876077
2262	0.0080307
2274	0.00784819
2286	0.00693561
2298	0.00529296
2310	0.00730064
2322	0.0142362
2334	0.0186166
2346	0.0186166
2358	0.0158789
2370	0.0133237
2382	0.005658
2394	0.00711812
2406	0.00821322
2418	0.00821322
2430	0.0080307
2442	0.00839574
2454	0.0080307
2466	0.00821322
2478	0.0080307
2490	0.00784819
2502	0.0080307
2514	0.00766567
2526	0.00784819
2538	0.0080307
2550	0.00839574
2562	0.00985586
2574	0.010951
2586	0.0100384
2598	0.0107684
2610	0.011316
2622	0.011316
2634	0.011681
2646	0.0111335
2658	0.011316
2670	0.0131412
2682	0.0138712
2694	0.0164264
2706	0.0175215
2718	0.0182516
2730	0.0197117
2742	0.0211719
2754	0.0240921
2766	0.0277424
2778	0.0310277
2790	0.0330354
2802	0.0332179
2814	0.0352256
2826	0.0438038
2838	0.0669834
2850	0.111152
2862	0.236906
2874	0.565617
2886	0.703599
2898	0.434571
2910	0.414859
2922	0.59774
2934	0.771495
2946	1.08579
2958	1.82516
2970	1.17084
2982	0.248952
2994	0.0708162
3006	0.0392409
3018	0.0271949
3030	0.0215369
3042	0.0193467
3054	0.0160614
3066	0.0122286
3078	0.0105859
3090	0.0100384
3102	0.00839574
3114	0.00894328
3126	0.00876077
3138	0.00821322
3150	0.0080307
3162	0.00657058
3174	0.00748316
3186	0.00766567
3198	0.00839574
3210	0.00766567
3222	0.00675309
3234	0.00675309
3246	0.00620554
3258	0.00602303
3270	0.00657058
3282	0.00602303
3294	0.00584051
3306	0.00620554
3318	0.00547548
3330	0.00730064
3342	0.00784819
3354	0.00821322
3366	0.00876077
3378	0.00730064
3390	0.00638806
3402	0.00821322
3414	0.0091258
3426	0.0105859
3438	0.00930832
3450	0.00821322
3462	0.00894328
3474	0.00857825
3486	0.00857825
3498	0.00857825
3510	0.00784819
3522	0.00949083
3534	0.00839574
3546	0.00839574
3558	0.00784819
3570	0.00693561
3582	0.00766567
3594	0.00711812
3606	0.00821322
3618	0.00821322
3630	0.0114985
3642	0.0206243
3654	0.0514695
3666	0.0914405
3678	0.0741015
3690	0.023362
3702	0.0133237
3714	0.0080307
3726	0.0104034
3738	0.00584051
3750	0.00821322
3762	0.00584051
3774	0.00492793
3786	0.00602303
3798	0.00730064
3810	0.00876077
3822	0.00711812
3834	0.00675309
3846	0.0111335
3858	0.00821322
3870	0.00766567
3882	0.0144188
3894	0.0100384
3906	0.00876077
3918	0.00967335
3930	0.00730064
3942	0.0080307
3954	0.00894328
3966	0.0118635
