Infrared Spectrum: 3-Cyclohexene-1-methanol, 6-methyl-, acetate
Formula: C 10 H 16 O 2
CAS: 70289-14-4
Origin: Sadtler Research Labs Under US-EPA Contract
1/CM	ABSORBANCE
450	0.0130404
462	0.0110341
474	0.0262479
486	0.0247432
498	0.0240745
510	0.0093623
522	0.0110341
534	0.0113685
546	0.0073561
558	0.00384523
570	0.00668736
582	0.0110341
594	0.0135419
606	0.0280869
618	0.0274182
630	0.0341055
642	0.0621924
654	0.104156
666	0.1508
678	0.0652018
690	0.0157153
702	0.00819202
714	0.00534989
726	0.00986386
738	0.00635299
750	0.0118701
762	0.0150466
774	0.0120372
786	0.00802483
798	0.0123716
810	0.0106998
822	0.022737
834	0.0267494
846	0.0265823
858	0.0257463
870	0.0234058
882	0.0337712
894	0.0411273
906	0.038118
918	0.0299259
930	0.027251
942	0.045474
954	0.0540004
966	0.0598519
978	0.0576785
990	0.0568426
1002	0.0957964
1014	0.183234
1026	0.233556
1038	0.277525
1050	0.225364
1062	0.218175
1074	0.165679
1086	0.115023
1098	0.0932887
1110	0.0561738
1122	0.041796
1134	0.039957
1146	0.0295916
1158	0.0377836
1170	0.0501552
1182	0.0722235
1194	0.0929543
1206	0.218509
1218	0.628779
1230	1.47005
1242	1.27795
1254	0.474468
1266	0.25111
1278	0.207977
1290	0.121543
1302	0.0688798
1314	0.0478146
1326	0.0397898
1338	0.0412944
1350	0.0528301
1362	0.182565
1374	0.297588
1386	0.213996
1398	0.139766
1410	0.0513255
1422	0.0429663
1434	0.0755672
1446	0.101815
1458	0.0929543
1470	0.0934559
1482	0.0534989
1494	0.0299259
1506	0.0247432
1518	0.0222355
1530	0.0187246
1542	0.0193933
1554	0.0152137
1566	0.0113685
1578	0.0110341
1590	0.00969667
1602	0.0120372
1614	0.0177215
1626	0.0232386
1638	0.022737
1650	0.0307619
1662	0.0341055
1674	0.0287556
1686	0.0356102
1698	0.0551707
1710	0.0743969
1722	0.0814186
1734	0.12823
1746	0.280869
1758	0.879221
1770	0.81987
1782	0.235729
1794	0.100143
1806	0.0506568
1818	0.030929
1830	0.024576
1842	0.016384
1854	0.0113685
1866	0.0106998
1878	0.00802483
1890	0.00919512
1902	0.00852638
1914	0.00652018
1926	0.00668736
1938	0.00618581
1950	0.00501552
1962	0.00401242
1974	0.00468115
1986	0.0041796
1998	0.00468115
2010	0.00568426
2022	0.00585144
2034	0.00501552
2046	0.00484834
2058	0.00601862
2070	0.00568426
2082	0.00551707
2094	0.00585144
2106	0.00601862
2118	0.00652018
2130	0.00718891
2142	0.00585144
2154	0.00401242
2166	0.00300931
2178	0.00284213
2190	0.00267494
2202	0.00267494
2214	0.00234058
2226	0.00183902
2238	0.00167184
2250	0.00200621
2262	0.00200621
2274	0.00200621
2286	0.00200621
2298	0.00234058
2310	0.00300931
2322	0.00250776
2334	0.00200621
2346	0.0051827
2358	0.00250776
2370	0.00250776
2382	0.00217339
2394	0.00167184
2406	0.00183902
2418	0.00183902
2430	0.00234058
2442	0.00300931
2454	0.00401242
2466	0.00384523
2478	0.00334368
2490	0.00234058
2502	0.00183902
2514	0.00133747
2526	0.0010031
2538	0.00117029
2550	0.00117029
2562	0.00217339
2574	0.00234058
2586	0.00300931
2598	0.00334368
2610	0.00334368
2622	0.0041796
2634	0.00401242
2646	0.00451397
2658	0.00501552
2670	0.00468115
2682	0.00534989
2694	0.0051827
2706	0.0051827
2718	0.00601862
2730	0.00785765
2742	0.0093623
2754	0.00902794
2766	0.00819202
2778	0.00902794
2790	0.00852638
2802	0.0112013
2814	0.0147122
2826	0.0282541
2838	0.100478
2850	0.153308
2862	0.10566
2874	0.106998
2886	0.189085
2898	0.317817
2910	0.403248
2922	0.343062
2934	0.22503
2946	0.200119
2958	0.258299
2970	0.300931
2982	0.208813
2994	0.0984714
3006	0.0453069
3018	0.048149
3030	0.213494
3042	0.241247
3054	0.0382851
3066	0.02909
3078	0.0257463
3090	0.0137091
3102	0.0112013
3114	0.00852638
3126	0.0073561
3138	0.00484834
3150	0.00468115
3162	0.00484834
3174	0.00551707
3186	0.00501552
3198	0.00384523
3210	0.00250776
3222	0.00250776
3234	0.0031765
3246	0.00300931
3258	0.00367805
3270	0.0031765
3282	0.00351086
3294	0.0051827
3306	0.00601862
3318	0.00384523
3330	0.00351086
3342	0.00284213
3354	0.0031765
3366	0.00367805
3378	0.00300931
3390	0.00250776
3402	0.00284213
3414	0.00300931
3426	0.00468115
3438	0.00367805
3450	0.00334368
3462	0.00334368
3474	0.0041796
3486	0.00434678
3498	0.0103654
3510	0.0115357
3522	0.00601862
3534	0.0031765
3546	0.00384523
3558	0.0010031
3570	0.00601862
3582	0.0041796
3594	0.00468115
3606	0.0031765
3618	0.00267494
3630	0.00685454
3642	0.00217339
3654	0.010031
3666	0.00501552
3678	0.00200621
3690	0.00601862
3702	0.00401242
3714	0.00434678
3726	0.0010031
3738	0.00150466
3750	0.0128732
3762	0.00250776
3774	0.00300931
3786	0.00200621
3798	0.00718891
3810	0.00183902
3822	0.00601862
3834	0.00451397
3846	0.00351086
3858	0.00384523
3870	0.00217339
3882	0.00367805
3894	0.00200621
3906	0.0041796
3918	0.00250776
3930	0.00183902
3942	0.00351086
3954	0.00367805
3966	0.00351086
