Infrared Spectrum: 3-Heptanone, 4-(3,4-dimethoxyphenyl)-,
Formula: C 15 H 22 O 3
CAS: 70289-08-6
Origin: Sadtler Research Labs Under US-EPA Contract
1/CM	ABSORBANCE
450	0.054055
462	0.00826628
474	0.0071317
486	0.0205036
498	0.00850941
510	0.0273112
522	0.0222865
534	0.0225297
546	0.0110217
558	0.0166947
570	0.0235832
582	0.0285268
594	0.0306339
606	0.0272301
618	0.0354964
630	0.0184776
642	0.0430333
654	0.0373604
666	0.0207468
678	0.0325789
690	0.0161274
702	0.0198553
714	0.0170999
726	0.0293372
738	0.0395485
750	0.0633748
762	0.0824197
774	0.0487062
786	0.0414125
798	0.0782055
810	0.0954675
822	0.0850941
834	0.0465181
846	0.0469233
858	0.0518669
870	0.0432764
882	0.0447352
894	0.0363068
906	0.0265007
918	0.0313633
930	0.0403589
942	0.0525963
954	0.0486252
966	0.0479769
978	0.0580261
990	0.0750449
1002	0.0970073
1014	0.201876
1026	0.354721
1038	0.360799
1050	0.169702
1062	0.0770709
1074	0.0637801
1086	0.0737482
1098	0.0930362
1110	0.124562
1122	0.211601
1134	0.28851
1146	0.271653
1158	0.25123
1170	0.156411
1182	0.11046
1194	0.0886599
1206	0.11046
1218	0.203415
1230	0.31963
1242	0.373766
1254	0.399132
1266	0.659277
1278	0.721274
1290	0.3702
1302	0.209413
1314	0.149928
1326	0.138501
1338	0.135016
1350	0.122536
1362	0.080961
1374	0.0612678
1386	0.0807989
1398	0.0639421
1410	0.132504
1422	0.165569
1434	0.107138
1446	0.173349
1458	0.207873
1470	0.273679
1482	0.156978
1494	0.24807
1506	0.685777
1518	0.588932
1530	0.155033
1542	0.0590796
1554	0.0451404
1566	0.0565673
1578	0.101465
1590	0.108758
1602	0.0961158
1614	0.0691288
1626	0.028851
1638	0.0200984
1650	0.0170188
1662	0.0225297
1674	0.0277164
1686	0.0363068
1698	0.0623213
1710	0.144579
1722	0.417528
1734	0.229754
1746	0.0602952
1758	0.0392243
1770	0.0226107
1782	0.0142634
1794	0.011508
1806	0.00883358
1818	0.00721274
1830	0.0071317
1842	0.00705065
1854	0.00745586
1866	0.00786107
1878	0.0071317
1890	0.00518669
1902	0.00461939
1914	0.00421418
1926	0.00445731
1938	0.00445731
1950	0.0040521
1962	0.00551086
1974	0.00567294
1986	0.00648336
1998	0.00769899
2010	0.00972504
2022	0.0132909
2034	0.0149117
2046	0.0126426
2058	0.0110217
2070	0.0102113
2082	0.00786107
2094	0.00486252
2106	0.00348481
2118	0.00259334
2130	0.00210709
2142	0.00145876
2154	0.00178292
2166	0.00283647
2178	0.0030796
2190	0.00324168
2202	0.00267439
2214	0.00194501
2226	0.00226918
2238	0.00243126
2250	0.00275543
2262	0.00364689
2274	0.00397106
2286	0.00380897
2298	0.00445731
2310	0.00534877
2322	0.00575398
2334	0.00583502
2346	0.00867149
2358	0.00745586
2370	0.00664544
2382	0.00243126
2394	0.00081042
2406	0.00137771
2418	0.00081042
2430	0.000891462
2442	0
2454	0.000243126
2466	0.000567294
2478	0.000891462
2490	0.00129667
2502	0.00170188
2514	0.00194501
2526	0.00291751
2538	0.0040521
2550	0.00478148
2562	0.00526773
2574	0.00542981
2586	0.00583502
2598	0.00445731
2610	0.00470044
2622	0.00324168
2634	0.00332272
2646	0.00267439
2658	0.00291751
2670	0.00291751
2682	0.00332272
2694	0.00340376
2706	0.00413314
2718	0.00526773
2730	0.00664544
2742	0.0090767
2754	0.009644
2766	0.00923879
2778	0.0113459
2790	0.0149928
2802	0.0207468
2814	0.0318495
2826	0.0577019
2838	0.137366
2850	0.141013
2862	0.0994385
2874	0.131288
2886	0.211033
2898	0.192151
2910	0.205441
2922	0.235913
2934	0.303097
2946	0.423201
2958	0.349129
2970	0.413152
2982	0.353019
2994	0.224081
3006	0.225216
3018	0.120104
3030	0.0706686
3042	0.0672649
3054	0.0580261
3066	0.0498408
3078	0.0380897
3090	0.0276353
3102	0.0209899
3114	0.0170188
3126	0.0140203
3138	0.0106165
3150	0.00859045
3162	0.00745586
3174	0.00753691
3186	0.00551086
3198	0.00510565
3210	0.00429523
3222	0.00356585
3234	0.00372793
3246	0.00380897
3258	0.00332272
3270	0.00283647
3282	0.00267439
3294	0.00243126
3306	0.00291751
3318	0.00275543
3330	0.00267439
3342	0.00421418
3354	0.00380897
3366	0.00356585
3378	0.00445731
3390	0.00478148
3402	0.0050246
3414	0.00769899
3426	0.00875254
3438	0.0090767
3450	0.00534877
3462	0.00429523
3474	0.00470044
3486	0.00461939
3498	0.00453835
3510	0.00429523
3522	0.00486252
3534	0.00470044
3546	0.00397106
3558	0.00397106
3570	0.00453835
3582	0.00761795
3594	0.00526773
3606	0.0065644
3618	0.00672649
3630	0.00332272
3642	0.00542981
3654	0
3666	0.00826628
3678	0.00721274
3690	0.00235022
3702	0.00721274
3714	0.00348481
3726	0.0081042
3738	0.0081042
3750	8.1042e-05
3762	0.00842837
3774	0.00680753
3786	0.00672649
3798	0.00332272
3810	0.0090767
3822	0.00291751
3834	0.00599711
3846	0.00624023
3858	0.00615919
3870	0.00826628
3882	0.00591607
3894	0.00769899
3906	0.00567294
3918	0.00591607
3930	0.00972504
3942	0.00583502
3954	0.00842837
3966	0.00721274
