Infrared Spectrum: 1-Butanone, 4-chloro-1-[4-(1-methylethyl)phenyl]-
Formula: C 13 H 17 Cl O
CAS: 70289-38-2
Origin: Sadtler Research Labs Under US-EPA Contract
1/CM	ABSORBANCE
450	0.0636929
462	0.0371872
474	0.0353575
486	0.0097913
498	0.0217584
510	0.0115715
522	0.030264
534	0.0352091
546	0.0275937
558	0.0194837
570	0.0362476
582	0.0308574
594	0.0278409
606	0.018643
618	0.0114232
630	0.02072
642	0.0144891
654	0.0197309
666	0.018198
678	0.0189397
690	0.0238848
702	0.0559291
714	0.0679457
726	0.0379289
738	0.0334783
750	0.0261596
762	0.0274453
774	0.0235881
786	0.0240826
798	0.0294728
810	0.0309563
822	0.0588961
834	0.0920283
846	0.0741765
858	0.0293244
870	0.0230442
882	0.0277915
894	0.0194837
906	0.0158738
918	0.0206705
930	0.047473
942	0.0657698
954	0.103155
966	0.0540499
978	0.0446048
990	0.0481653
1002	0.0460389
1014	0.07116
1026	0.0481158
1038	0.0374344
1050	0.101572
1062	0.189892
1074	0.0752644
1086	0.0351102
1098	0.0283354
1110	0.0329344
1122	0.0215606
1134	0.0214617
1146	0.0261101
1158	0.0208189
1170	0.0220057
1182	0.0590445
1194	0.0534565
1206	0.0466817
1218	0.0934129
1230	0.119573
1242	0.100287
1254	0.0977646
1266	0.0738303
1278	0.0625061
1290	0.0666105
1302	0.106666
1314	0.108792
1326	0.0596874
1338	0.0486598
1350	0.0554346
1362	0.0738798
1374	0.0695281
1386	0.0387696
1398	0.0329344
1410	0.0582533
1422	0.0632973
1434	0.0338739
1446	0.0385223
1458	0.051429
1470	0.049995
1482	0.0351597
1494	0.0260112
1506	0.0435663
1518	0.0468795
1530	0.0051429
1542	0.00276926
1554	0.00712094
1566	0.015132
1578	0.0114726
1590	0.0173573
1602	0.06305
1614	0.0702204
1626	0.0260607
1638	0.0376817
1650	0.0385223
1662	0.0266046
1674	0.0222035
1686	0.0674017
1698	0.200178
1710	0.0878744
1722	0.0238354
1734	0.0122144
1746	0.00865392
1758	0.0101869
1770	0.0099891
1782	0.0097913
1794	0.007566
1806	0.0073682
1818	0.00553851
1830	0.0023242
1842	0.00331322
1854	0.00405498
1866	0.00365937
1878	0.00529126
1890	0.00781326
1902	0.0109287
1914	0.0105331
1926	0.0074671
1938	0.00712094
1950	0.00613192
1962	0.00568687
1974	0.00553851
1986	0.00603302
1998	0.00662643
2010	0.00672534
2022	0.00543961
2034	0.00558796
2046	0.00529126
2058	0.0047473
2070	0.00469784
2082	0.0049451
2094	0.00435169
2106	0.0048462
2118	0.00489565
2130	0.00435169
2142	0.00430224
2154	0.00415388
2166	0.00370882
2178	0.00390663
2190	0.00365937
2202	0.00331322
2214	0.00351102
2226	0.00390663
2238	0.00415388
2250	0.00450004
2262	0.0049451
2274	0.00548906
2286	0.00534071
2298	0.00534071
2310	0.00479675
2322	0.0047473
2334	0.00375828
2346	0.00311541
2358	0.00425279
2370	0.00450004
2382	0.00430224
2394	0.00405498
2406	0.00415388
2418	0.00420333
2430	0.00430224
2442	0.00405498
2454	0.00405498
2466	0.00464839
2478	0.00430224
2490	0.00420333
2502	0.00425279
2514	0.00385718
2526	0.00375828
2538	0.00415388
2550	0.0047473
2562	0.00459894
2574	0.00539016
2586	0.00618137
2598	0.00692314
2610	0.00529126
2622	0.00519236
2634	0.00440114
2646	0.00405498
2658	0.00548906
2670	0.0051429
2682	0.00613192
2694	0.00509345
2706	0.00855502
2718	0.00825832
2730	0.0125111
2742	0.00984075
2754	0.0111265
2766	0.00959349
2778	0.0137474
2790	0.0102858
2802	0.0154287
2814	0.0144891
2826	0.0201266
2838	0.0238354
2850	0.0378795
2862	0.0887151
2874	0.140292
2886	0.145336
2898	0.147364
2910	0.147117
2922	0.158392
2934	0.196963
2946	0.205123
2958	0.2342
2970	0.49451
2982	0.235634
2994	0.0935613
3006	0.0613687
3018	0.0498961
3030	0.0591928
3042	0.0532587
3054	0.0411432
3066	0.0361981
3078	0.0337256
3090	0.0376322
3102	0.0259618
3114	0.0202749
3126	0.0134507
3138	0.00949459
3150	0.00731875
3162	0.00796161
3174	0.00598357
3186	0.00677479
3198	0.00548906
3210	0.00613192
3222	0.00578577
3234	0.00543961
3246	0.00524181
3258	0.00543961
3270	0.00623083
3282	0.00524181
3294	0.0047473
3306	0.00469784
3318	0.00469784
3330	0.005044
3342	0.00573632
3354	0.00479675
3366	0.00628028
3378	0.00623083
3390	0.00603302
3402	0.00454949
3414	0.00440114
3426	0.00395608
3438	0.0051429
3450	0.00410443
3462	0.0051429
3474	0.0047473
3486	0.00464839
3498	0.0047473
3510	0.0048462
3522	0.00464839
3534	0.00420333
3546	0.00578577
3558	0.00509345
3570	0.00692314
3582	0.00741765
3594	0.00815941
3606	0.00464839
3618	0.00454949
3630	0.00791216
3642	0.00598357
3654	0.00939569
3666	0.00450004
3678	0.00830777
3690	0.0074671
3702	0.00454949
3714	0.00667588
3726	0.00825832
3738	0.00771436
3750	0.00652753
3762	0.00578577
3774	0.00692314
3786	0.00558796
3798	0.0048462
3810	0.00380773
3822	0.00929679
3834	0.00815941
3846	0.0049451
3858	0.00771436
3870	0.00870338
3882	0.00880228
3894	0.0073682
3906	0.00820887
3918	0.00380773
3930	0.00499455
3942	0.00395608
3954	0.00692314
3966	0.00459894
