Infrared Spectrum: Benzenemethanol, 4-bromo-.alpha.-cyclopropyl-
Formula: C 10 H 11 Br O
CAS: 70289-39-3
Origin: Sadtler Research Labs Under US-EPA Contract
1/CM	ABSORBANCE
450	0.0968745
462	0.017045
474	0.0223179
486	0.0556109
498	0.0721654
510	0.0548751
522	0.0535262
534	0.052116
546	0.0345192
558	0.0160027
570	0.0104232
582	0.0107911
594	0.0100553
606	0.00183939
618	0.00441454
630	0.00858382
642	0.0139181
654	0.0154509
666	0.0176581
678	0.0142246
690	0.0110363
702	0.0089517
714	0.0164319
726	0.0103006
738	0.0187618
750	0.0345805
762	0.0638881
774	0.0492343
786	0.0510124
798	0.0964453
810	0.185656
822	0.244761
834	0.259231
846	0.157881
858	0.0791551
870	0.0439614
882	0.0223179
894	0.0206625
906	0.0375236
918	0.0715523
930	0.068364
942	0.134398
954	0.126182
966	0.103987
978	0.0911111
990	0.109566
1002	0.211101
1014	0.61313
1026	0.306565
1038	0.340042
1050	0.284186
1062	0.207974
1074	0.349607
1086	0.135195
1098	0.0869418
1110	0.0645626
1122	0.067199
1134	0.0774996
1146	0.0536489
1158	0.0499088
1170	0.0807492
1182	0.104109
1194	0.0962614
1206	0.0755376
1218	0.0846733
1230	0.0927666
1242	0.08032
1254	0.0806266
1266	0.0897622
1278	0.0929505
1290	0.108034
1302	0.0918469
1314	0.0821594
1326	0.075415
1338	0.0729012
1350	0.071491
1362	0.0687319
1374	0.0771931
1386	0.0958322
1398	0.12281
1410	0.110179
1422	0.0691611
1434	0.0650531
1446	0.0487438
1458	0.0453103
1470	0.0825886
1482	0.226368
1494	0.322629
1506	0.0606999
1518	0.0143472
1530	0.00827726
1542	0.0019007
1554	0.00557948
1566	0.0166771
1578	0.032312
1590	0.0806266
1602	0.0515642
1614	0.012937
1626	0.0122013
1638	0.0112203
1650	0.00588605
1662	0.00821594
1674	0.00539554
1686	0.00490504
1698	0.00625393
1710	0.00521161
1722	0.00441454
1734	0.00790938
1746	0.0143472
1758	0.0163706
1770	0.0206012
1782	0.0198654
1794	0.0106071
1806	0.0066218
1818	0.00643787
1830	0.00588605
1842	0.00778675
1854	0.00668312
1866	0.00919695
1878	0.0136728
1890	0.0197428
1902	0.0210304
1914	0.0136728
1926	0.00968745
1938	0.00790938
1950	0.00576342
1962	0.00570211
1974	0.00478241
1986	0.00374009
1998	0.0033109
2010	0.00239121
2022	0.00361747
2034	0.0042306
2046	0.0061313
2058	0.00711231
2070	0.00870645
2082	0.0066218
2094	0.00576342
2106	0.0056408
2118	0.00349484
2130	0.00239121
2142	0.00239121
2154	0.00214596
2166	0.00196202
2178	0.0019007
2190	0.00183939
2202	0.00214596
2214	0.00232989
2226	0.00269777
2238	0.00288171
2250	0.0033109
2262	0.00367878
2274	0.00429191
2286	0.00551817
2298	0.00778675
2310	0.0102393
2322	0.00901301
2334	0.00864513
2346	0.0134275
2358	0.0105458
2370	0.012937
2382	0.00889039
2394	0.00404666
2406	0.00398535
2418	0.00343353
2430	0.00324959
2442	0.00386272
2454	0.00429191
2466	0.0047211
2478	0.0061313
2490	0.00545686
2502	0.00527292
2514	0.00570211
2526	0.0056408
2538	0.00533423
2550	0.00588605
2562	0.00600867
2574	0.00729625
2586	0.00717362
2598	0.00735756
2610	0.00637655
2622	0.00557948
2634	0.0056408
2646	0.00606999
2658	0.007051
2670	0.00717362
2682	0.00619261
2694	0.00606999
2706	0.00643787
2718	0.00686706
2730	0.00674443
2742	0.00735756
2754	0.0075415
2766	0.0089517
2778	0.00981008
2790	0.0112203
2802	0.0120787
2814	0.0139794
2826	0.0175355
2838	0.0236055
2850	0.0363586
2862	0.0652983
2874	0.101228
2886	0.103558
2898	0.0725946
2910	0.0453103
2922	0.0313309
2934	0.0258741
2946	0.0232376
2958	0.0232989
2970	0.0275909
2982	0.0297368
2994	0.043287
3006	0.108401
3018	0.22974
3030	0.15083
3042	0.0741274
3054	0.0494183
3066	0.0473949
3078	0.090498
3090	0.180873
3102	0.0941768
3114	0.0210917
3126	0.00882907
3138	0.00748019
3150	0.007051
3162	0.00625393
3174	0.00490504
3186	0.0047211
3198	0.00484373
3210	0.00453716
3222	0.00521161
3234	0.00349484
3246	0.00374009
3258	0.00361747
3270	0.0047211
3282	0.00490504
3294	0.00367878
3306	0.00410797
3318	0.00386272
3330	0.00429191
3342	0.00557948
3354	0.00484373
3366	0.0047211
3378	0.00447585
3390	0.00521161
3402	0.0061313
3414	0.00533423
3426	0.00649918
3438	0.00502767
3450	0.00521161
3462	0.00570211
3474	0.00570211
3486	0.00570211
3498	0.00625393
3510	0.00478241
3522	0.00508898
3534	0.00502767
3546	0.00637655
3558	0.00631524
3570	0.00606999
3582	0.0101166
3594	0.00570211
3606	0.0110977
3618	0.0131823
3630	0.0290624
3642	0.105458
3654	0.0665246
3666	0.0410797
3678	0.0175968
3690	0.00275909
3702	0.00956483
3714	0.00588605
3726	0.0101166
3738	0.00717362
3750	0
3762	0.00833857
3774	0.00625393
3786	0.00508898
3798	0.00134889
3810	0.0115268
3822	0.00134889
3834	0.00465979
3846	0.00453716
3858	0.00355615
3870	0.00711231
3882	0.0056408
3894	0.00809332
3906	0.00374009
3918	0.00711231
3930	0.00931958
3942	0.00968745
3954	0.00521161
3966	0.00668312
