Infrared Spectrum: 2-Pyridinecarboxaldehyde, 6-methyl-, O-(phenylmethyl)oxime
Formula: C 14 H 14 N 2 O
CAS: 70289-35-9
Origin: Sadtler Research Labs Under US-EPA Contract
1/CM	ABSORBANCE
450	0.0200557
462	0.00338969
474	0.0106399
486	0.00329553
498	0.00541408
510	0.0174663
522	0.0394051
534	0.0367687
546	0.0165247
558	0.0122876
570	0.0106399
582	0.0125701
594	0.0186904
606	0.0394522
618	0.0529168
630	0.0306484
642	0.0414766
654	0.0507982
666	0.0213739
678	0.0453371
690	0.102585
702	0.106493
714	0.0790456
726	0.0917099
738	0.139683
750	0.0950054
762	0.053058
774	0.117038
786	0.164023
798	0.0706656
810	0.0368629
822	0.0265526
834	0.0204794
846	0.0155361
858	0.0195378
870	0.0275883
882	0.0338498
894	0.0483972
906	0.109788
918	0.22612
930	0.16859
942	0.202016
954	0.168166
966	0.111436
978	0.144391
990	0.169531
1002	0.224708
1014	0.244246
1026	0.387507
1038	0.433739
1050	0.364862
1062	0.18874
1074	0.116238
1086	0.0825766
1098	0.0541409
1110	0.0252343
1122	0.0155361
1134	0.0122876
1146	0.0257993
1158	0.0394522
1170	0.0152065
1182	0.0169484
1194	0.0243398
1206	0.0485384
1218	0.0239161
1230	0.0215622
1242	0.0479264
1254	0.0553178
1266	0.0288594
1278	0.0160069
1290	0.0187845
1302	0.0290948
1314	0.0306013
1326	0.0523518
1338	0.0410058
1350	0.057813
1362	0.151924
1374	0.0829532
1386	0.0329553
1398	0.0168072
1410	0.0182667
1422	0.0277295
1434	0.0454312
1446	0.120334
1458	0.314441
1470	0.123629
1482	0.0491976
1494	0.0486326
1506	0.0327199
1518	0.0209972
1530	0.0251873
1542	0.0346972
1554	0.0531522
1566	0.140342
1578	0.258087
1590	0.153195
1602	0.0791869
1614	0.0464199
1626	0.0146416
1638	0.0109694
1650	0.00781511
1662	0.00517869
1674	0.00484914
1686	0.0104986
1698	0.00805051
1710	0.0102161
1722	0.0134646
1734	0.0115814
1746	0.00503745
1758	0.00503745
1770	0.00687353
1782	0.00875669
1794	0.0124289
1806	0.0114873
1818	0.0103103
1830	0.00833298
1842	0.00522577
1854	0.0085213
1866	0.013088
1878	0.0192553
1890	0.0118639
1902	0.00692061
1914	0.00729724
1926	0.00875669
1938	0.0102161
1950	0.013135
1962	0.0130409
1974	0.0058378
1986	0.00404879
1998	0.00169484
2010	0.00240103
2022	0.00263642
2034	0.00164777
2046	0.00155361
2058	0.0020244
2070	0.00211856
2082	0.00127113
2094	0.00122405
2106	0.000847422
2118	0.000564948
2130	0.0020244
2142	0.00131821
2154	0.000753264
2166	0.00094158
2178	0.00211856
2190	0.000800343
2202	0.000706185
2214	0.000564948
2226	0.00155361
2238	0.00211856
2250	0.00047079
2262	0.00122405
2274	0.0029189
2286	0.00164777
2298	0.00353092
2310	0.00527285
2322	0.00400172
2334	0.00635566
2346	0.00517869
2358	0.00489622
2370	0.00451958
2382	0.00183608
2394	0.00136529
2406	0.0026835
2418	0.00207148
2430	0.0020244
2442	0.00225979
2454	0.00225979
2466	0.00230687
2478	0.00249519
2490	0.00287182
2502	0.00320137
2514	0.00296598
2526	0.00324845
2538	0.00310721
2550	0.00263642
2562	0.00254227
2574	0.00240103
2586	0.00338969
2598	0.00287182
2610	0.00301306
2622	0.00442543
2634	0.00306014
2646	0.00329553
2658	0.00348385
2670	0.00306014
2682	0.00433127
2694	0.00367216
2706	0.00442543
2718	0.00569656
2730	0.00503745
2742	0.00550824
2754	0.00367216
2766	0.00414295
2778	0.00517869
2790	0.00701477
2802	0.00922748
2814	0.0108282
2826	0.0120522
2838	0.0145945
2850	0.0193024
2862	0.0360154
2874	0.0521635
2886	0.0496683
2898	0.039358
2910	0.0470319
2922	0.081023
2934	0.137188
2946	0.101973
2958	0.0654398
2970	0.04948
2982	0.0342735
2994	0.0328611
3006	0.0407704
3018	0.0574364
3030	0.0813525
3042	0.105787
3054	0.0862958
3066	0.146274
3078	0.131303
3090	0.0661931
3102	0.0404409
3114	0.0249048
3126	0.0115344
3138	0.00729724
3150	0.00663814
3162	0.00489622
3174	0.00433127
3186	0.00320137
3198	0.00287182
3210	0.00221271
3222	0.00287182
3234	0.00282474
3246	0.00301306
3258	0.00263642
3270	0.00301306
3282	0.00249519
3294	0.00353092
3306	0.00249519
3318	0.00371924
3330	0.00362508
3342	0.00225979
3354	0.00320137
3366	0.00287182
3378	0.00324845
3390	0.00306014
3402	0.00296598
3414	0.00348385
3426	0.00263642
3438	0.00301306
3450	0.00287182
3462	0.00277766
3474	0.0029189
3486	0.0026835
3498	0.0029189
3510	0.00306014
3522	0.00263642
3534	0.00183608
3546	0.00315429
3558	0.00225979
3570	0.00207148
3582	0.00221271
3594	0.00230687
3606	0.000564948
3618	0.00404879
3630	0.00338969
3642	0.00437835
3654	0.00715601
3666	0.000141237
3678	0.00677938
3690	0.00428419
3702	0.00169484
3714	0.00282474
3726	0.00131821
3738	0.00414295
3750	0.00579072
3762	0.00235395
3774	0.00433127
3786	0.00145945
3798	0.00419003
3810	0.00141237
3822	0.00936872
3834	0.00612027
3846	0.00433127
3858	0.00908625
3870	0.00809759
3882	0.00400172
3894	0.00508453
3906	0.00800343
3918	0.000894501
3930	0.00630859
3942	0.00235395
3954	0.00390756
3966	0.00437835
