Infrared Spectrum: Propionitrile, 3-decyloxy-2,2-diethoxy/-,
Formula: C 17 H 33 N O 3
CAS: 70289-41-7
Origin: Sadtler Research Labs Under US-EPA Contract
1/CM	ABSORBANCE
450	0.0238003
462	0.0133087
474	0.013503
486	0.0311347
498	0.045512
510	0.0370604
522	0.00578007
534	0.0252089
546	0.0263746
558	0.0393919
570	0.027686
582	0.0173888
594	0.0191374
606	0.0232174
618	0.0203031
630	0.0216145
642	0.0153488
654	0.0148145
666	0.0220517
678	0.0215174
690	0.0246746
702	0.0238974
714	0.0186031
726	0.0259374
738	0.0294832
750	0.0138916
762	0.0216145
774	0.0181174
786	0.0216631
798	0.0251117
810	0.0244803
822	0.0264717
834	0.027006
846	0.034389
858	0.0276375
870	0.0316689
882	0.0311347
894	0.0268603
906	0.0349233
918	0.033029
930	0.039149
942	0.039829
954	0.034389
966	0.0345833
978	0.0365261
990	0.0423548
1002	0.0474548
1014	0.050952
1026	0.0534292
1038	0.061395
1050	0.0634836
1062	0.0766952
1074	0.0836896
1086	0.111327
1098	0.170099
1110	0.272197
1122	0.338498
1134	0.298572
1146	0.210851
1158	0.132602
1170	0.0804838
1182	0.0570721
1194	0.0465805
1206	0.0389062
1218	0.0396833
1230	0.0452691
1242	0.0437634
1254	0.047212
1266	0.0455605
1278	0.0466777
1290	0.0506606
1302	0.046872
1314	0.0404119
1326	0.0414319
1338	0.0463377
1350	0.0684865
1362	0.0683894
1374	0.0535263
1386	0.0450748
1398	0.0324947
1410	0.0284632
1422	0.0291432
1434	0.033709
1446	0.0457548
1458	0.0639693
1470	0.0547892
1482	0.0369633
1494	0.0207888
1506	0.0141345
1518	0.0119973
1530	0.0105887
1542	0.00772295
1554	0.0104916
1566	0.00840296
1578	0.00801438
1590	0.010443
1602	0.00859724
1614	0.00636293
1626	0.00922868
1638	0.00772295
1650	0.00616864
1662	0.0097144
1674	0.00655722
1686	0.00670294
1698	0.00568292
1710	0.0085001
1722	0.00952011
1734	0.0109287
1746	0.014863
1758	0.0195259
1770	0.0175831
1782	0.0117544
1794	0.00704294
1806	0.00709151
1818	0.00704294
1830	0.00582864
1842	0.00602293
1854	0.00636293
1866	0.00612007
1878	0.00616864
1890	0.00646008
1902	0.00665436
1914	0.00723723
1926	0.0069458
1938	0.00689722
1950	0.00757723
1962	0.00748009
1974	0.00738294
1986	0.00655722
1998	0.0069458
2010	0.00621722
2022	0.00602293
2034	0.0060715
2046	0.00582864
2058	0.0051972
2070	0.00563435
2082	0.0057315
2094	0.00553721
2106	0.00514863
2118	0.00500292
2130	0.0051972
2142	0.00476006
2154	0.00480863
2166	0.00417719
2178	0.0039829
2190	0.00427434
2202	0.00369147
2214	0.00349718
2226	0.00325432
2238	0.00412862
2250	0.00490577
2262	0.00490577
2274	0.00383719
2286	0.00344861
2298	0.00442005
2310	0.00403148
2322	0.00291432
2334	0.000340004
2346	0.00204002
2358	0
2370	0
2382	0.00218574
2394	0.00102001
2406	0.00111716
2418	0.00126287
2430	0.00097144
2442	0.000534292
2454	0.000340004
2466	0.000534292
2478	0.000388576
2490	9.7144e-05
2502	0.000680008
2514	0.00106858
2526	0.00106858
2538	0.00136002
2550	0.00116573
2562	0.00150573
2574	0.00179716
2586	0.00238003
2598	0.00286575
2610	0.00344861
2622	0.00296289
2634	0.00359433
2646	0.00456577
2658	0.00514863
2670	0.0057315
2682	0.00786866
2694	0.00947154
2706	0.0105887
2718	0.0124344
2730	0.0135516
2742	0.0152516
2754	0.015203
2766	0.0166602
2778	0.0187974
2790	0.0227803
2802	0.0281718
2814	0.0335633
2826	0.0438119
2838	0.0664465
2850	0.134447
2862	0.274772
2874	0.282543
2886	0.229988
2898	0.204002
2910	0.243977
2922	0.344424
2934	0.48572
2946	0.376627
2958	0.241209
2970	0.191568
2982	0.0867982
2994	0.0402176
3006	0.0250146
3018	0.0168545
3030	0.012143
3042	0.00903439
3054	0.00680008
3066	0.00636293
3078	0.00500292
3090	0.00388576
3102	0.00369147
3114	0.00403148
3126	0.00310861
3138	0.0024286
3150	0.00228288
3162	0.00213717
3174	0.0033029
3186	0.00286575
3198	0.00174859
3210	0.00213717
3222	0.00111716
3234	0.0012143
3246	0.00140859
3258	0.00131144
3270	0.00048572
3282	0.00106858
3294	0.00072858
3306	0.00204002
3318	0.00131144
3330	0.00213717
3342	0.00048572
3354	0.00165145
3366	0.00223431
3378	0.00106858
3390	0.00126287
3402	0.00204002
3414	0.00179716
3426	0.00160288
3438	0.00111716
3450	0.00272003
3462	0.00174859
3474	0.00315718
3486	0.00233146
3498	0.000922868
3510	0.00340004
3522	0.00247717
3534	0.00272003
3546	0.00325432
3558	0.00301146
3570	0.0039829
3582	0.00335147
3594	0.00281718
3606	0.00359433
3618	0.00301146
3630	0.00228288
3642	0.00587721
3654	0.00369147
3666	0.00490577
3678	0.00247717
3690	0.00456577
3702	0.00510006
3714	0.00374004
3726	0.00539149
3738	0.00301146
3750	0.0045172
3762	0.00442005
3774	0.0048572
3786	0.00616864
3798	0.00369147
3810	0.00548864
3822	0.00442005
3834	0.00660579
3846	0.00650865
3858	0.00539149
3870	0.00262289
3882	0.00927725
3894	0.00111716
3906	0.00267146
3918	0.0102487
3930	0.0105401
3942	0.00738294
3954	0.00757723
3966	0.00786866
