Infrared Spectrum: 3-Chlorobenzal bromide
Formula: C 7 H 5 Br 2 Cl
CAS: 70288-97-0
Origin: Sadtler Research Labs Under US-EPA Contract
1/CM	ABSORBANCE
450	0.0215667
462	0.0219705
474	0.0104198
486	0.036106
498	0.0238283
510	0.0480605
522	0.0679309
534	0.0941017
546	0.0261708
558	0.0181742
570	0.0974134
582	0.123988
594	0.031098
606	0.0251207
618	0.0279478
630	0.0744736
642	0.156944
654	0.230367
666	0.215263
678	0.178026
690	0.497649
702	0.741101
714	0.203874
726	0.107349
738	0.0558148
750	0.0312595
762	0.0383676
774	0.0621152
786	0.119949
798	0.0520185
810	0.0274632
822	0.0207589
834	0.0225359
846	0.0206781
858	0.0345713
870	0.0557341
882	0.127461
894	0.11583
906	0.0367522
918	0.0214051
930	0.0148624
942	0.016801
954	0.0211628
966	0.0212436
978	0.0217282
990	0.0263323
1002	0.0348136
1014	0.0190627
1026	0.0163971
1038	0.00500799
1050	0.00856204
1062	0.0311788
1074	0.0808548
1086	0.131662
1098	0.117849
1110	0.0609844
1122	0.0479798
1134	0.075039
1146	0.275924
1158	0.116557
1170	0.0524223
1182	0.107349
1194	0.0432949
1206	0.0671232
1218	0.202339
1230	0.259527
1242	0.108076
1254	0.033602
1266	0.0314211
1278	0.0520185
1290	0.042891
1302	0.0366714
1314	0.0259285
1326	0.0231821
1338	0.022859
1350	0.0179318
1362	0.0190627
1374	0.0222936
1386	0.0292402
1398	0.0537147
1410	0.0753621
1422	0.153874
1434	0.157752
1446	0.0544417
1458	0.0483836
1470	0.138204
1482	0.170514
1494	0.0454758
1506	0.0306941
1518	0.0151855
1530	0.0129238
1542	0.0187396
1554	0.0369137
1566	0.108237
1578	0.179884
1590	0.155813
1602	0.123503
1614	0.0265746
1626	0.015024
1638	0.0121969
1650	0.0118738
1662	0.0105006
1674	0.0147009
1686	0.0250399
1698	0.0180934
1710	0.0220513
1722	0.0408716
1734	0.0314211
1746	0.0247168
1758	0.0296441
1770	0.0344905
1782	0.0183357
1794	0.0180126
1806	0.0163971
1818	0.0116315
1830	0.00904669
1842	0.00953133
1854	0.0130046
1866	0.0189011
1878	0.0163971
1890	0.00848127
1902	0.00743121
1914	0.0080774
1926	0.0133277
1938	0.0172049
1950	0.0107429
1962	0.00767353
1974	0.00710811
1986	0.00726966
1998	0.00726966
2010	0.00726966
2022	0.0062196
2034	0.00613882
2046	0.00638115
2058	0.00670424
2070	0.00646192
2082	0.00613882
2094	0.00597728
2106	0.00605805
2118	0.00630037
2130	0.00557341
2142	0.00484644
2154	0.00500799
2166	0.00541186
2178	0.00541186
2190	0.00525031
2202	0.00468489
2214	0.00387715
2226	0.00420025
2238	0.00395793
2250	0.00444257
2262	0.00500799
2274	0.00581573
2286	0.00710811
2298	0.00597728
2310	0.00613882
2322	0.00541186
2334	0.00581573
2346	0.00702734
2358	0.00581573
2370	0.00573495
2382	0.00613882
2394	0.00508876
2406	0.0040387
2418	0.00355406
2430	0.0043618
2442	0.00492721
2454	0.00452334
2466	0.00323096
2478	0.00315019
2490	0.0037156
2502	0.00323096
2514	0.00242322
2526	0.00250399
2538	0.00153471
2550	0.00153471
2562	0.00137316
2574	0.00137316
2586	0.00161548
2598	0.00145393
2610	0.00153471
2622	0.00210012
2634	0.00153471
2646	0.00145393
2658	0.00129238
2670	0.000484644
2682	0.000969288
2694	0.00161548
2706	0.00258477
2718	0.00541186
2730	0.00492721
2742	0.00242322
2754	0.0018578
2766	0.00339251
2778	0.00428102
2790	0.0043618
2802	0.0062196
2814	0.0077543
2826	0.00735043
2838	0.00363483
2850	0.00201935
2862	0.00226167
2874	0.00226167
2886	0.00153471
2898	0.00105006
2910	0.000888514
2922	0.00169625
2934	0.00274632
2946	0.00258477
2958	0.00153471
2970	0.00193858
2982	0.00145393
2994	0.00161548
3006	0.00315019
3018	0.00953133
3030	0.0155894
3042	0.0153471
3054	0.0156702
3066	0.0355406
3078	0.0495145
3090	0.0375599
3102	0.0218898
3114	0.00646192
3126	0.0040387
3138	0.00452334
3150	0.00468489
3162	0.00452334
3174	0.00444257
3186	0.00387715
3198	0.00331173
3210	0.00258477
3222	0.00234245
3234	0.00274632
3246	0.00242322
3258	0.00161548
3270	0.0021809
3282	0.00201935
3294	0.00177703
3306	0.00201935
3318	0.00153471
3330	0.00137316
3342	0.0021809
3354	0.000969288
3366	0.00129238
3378	0.00113084
3390	0.000565418
3402	0.00145393
3414	0.00129238
3426	0.00129238
3438	0.00193858
3450	0.00113084
3462	0.000646192
3474	0.00113084
3486	0.000888514
3498	0.00169625
3510	0.00121161
3522	0.000242322
3534	0.00137316
3546	0.00201935
3558	0.00121161
3570	0.00177703
3582	0.00613882
3594	0.00379638
3606	0.00153471
3618	0.000646192
3630	0.00080774
3642	0.00121161
3654	0.00210012
3666	0.00177703
3678	0.000565418
3690	0.000565418
3702	0.000888514
3714	0.000565418
3726	0.000646192
3738	0.0018578
3750	8.0774e-05
3762	0.00040387
3774	0.000161548
3786	0.00113084
3798	8.0774e-05
3810	8.0774e-05
3822	8.0774e-05
3834	0.00193858
3846	0
3858	0.00113084
3870	0.00193858
3882	0.00113084
3894	0.00137316
3906	0.00234245
3918	0.00129238
3930	0.00306941
3942	8.0774e-05
3954	0.00177703
3966	0.00339251
