Infrared Spectrum: Succinimide, N-(o-phenetidinomethyl)-,
Formula: C 13 H 16 N 2 O 3
CAS: 70289-20-2
Origin: Sadtler Research Labs Under US-EPA Contract
1/CM	ABSORBANCE
450	0.0310599
462	0.0305507
474	0.0358122
486	0.0257984
498	0.0354727
510	0.0125597
522	0.0233373
534	0.0277502
546	0.0332663
558	0.0469292
570	0.0121354
582	0.0311447
594	0.0460806
606	0.0497297
618	0.0692482
630	0.0897851
642	0.137818
654	0.13629
666	0.0896153
678	0.0548215
690	0.0358122
702	0.0327571
714	0.0297869
726	0.0688239
738	0.132047
750	0.144607
762	0.0820625
774	0.0475233
786	0.0238465
798	0.0140873
810	0.0201125
822	0.0269864
834	0.0168877
846	0.0106927
858	0.00661931
870	0.0190093
882	0.0434499
894	0.0571128
906	0.0566036
918	0.0431953
930	0.0245254
942	0.0164634
954	0.00644959
966	0.00220644
978	0.00475233
990	0.00992897
1002	0.014851
1014	0.0313993
1026	0.0806199
1038	0.142061
1050	0.126276
1062	0.0572825
1074	0.033436
1086	0.0482022
1098	0.0809593
1110	0.113801
1122	0.131113
1134	0.180843
1146	0.269016
1158	0.235665
1170	0.142655
1182	0.0675509
1194	0.0992897
1206	0.186359
1218	0.251194
1230	0.317303
1242	0.321037
1254	0.199768
1266	0.143503
1278	0.156997
1290	0.151226
1302	0.131538
1314	0.1239
1326	0.178976
1338	0.205878
1350	0.145031
1362	0.0650899
1374	0.0448077
1386	0.0545669
1398	0.068739
1410	0.0442136
1422	0.0232525
1434	0.0440439
1446	0.0726427
1458	0.0905488
1470	0.0931796
1482	0.136035
1494	0.182371
1506	0.135441
1518	0.074934
1530	0.0292777
1542	0.00763767
1554	0.00891062
1566	0.0192639
1578	0.0386975
1590	0.059489
1602	0.0588101
1614	0.0466747
1626	0.0401402
1638	0.0312296
1650	0.0274956
1662	0.0185001
1674	0.0165483
1686	0.0252892
1698	0.071879
1710	0.148935
1722	0.191281
1734	0.270458
1746	0.302621
1758	0.50816
1770	0.820965
1782	0.743654
1794	0.447143
1806	0.107691
1818	0.0789226
1830	0.0543972
1842	0.0224887
1854	0.00908034
1866	0.00729822
1878	0.0078074
1890	0.00797712
1902	0.00738308
1914	0.00746794
1926	0.00772253
1938	0.00678904
1950	0.00611014
1962	0.00492205
1974	0.0045826
1986	0.00381884
1998	0.00322479
2010	0.00203671
2022	0.00237616
2034	0.00237616
2046	0.00415829
2058	0.00704363
2070	0.00653445
2082	0.0022913
2094	0.00101836
2106	0.000424315
2118	0.000339452
2130	0
2142	0.000509178
2154	0
2166	0.000933493
2178	0.000509178
2190	0.000424315
2202	0.000933493
2214	0.00127295
2226	0.00127295
2238	0.00144267
2250	0.00195185
2262	0.00237616
2274	0.00186699
2286	0.00237616
2298	0.0039037
2310	0.00492205
2322	0.00407342
2334	0.00280048
2346	0.0039037
2358	0.00364911
2370	0.00263075
2382	0.00424315
2394	0.00237616
2406	0.00297021
2418	0.00305507
2430	0.00288534
2442	0.00322479
2454	0.00297021
2466	0.00322479
2478	0.00415829
2490	0.00364911
2502	0.00271562
2514	0.00195185
2526	0.00220644
2538	0.00271562
2550	0.00288534
2562	0.00330966
2574	0.00246103
2586	0.00195185
2598	0.00254589
2610	0.00280048
2622	0.00288534
2634	0.00288534
2646	0.00313993
2658	0.00305507
2670	0.00313993
2682	0.00246103
2694	0.00254589
2706	0.00322479
2718	0.00483719
2730	0.00661931
2742	0.00670418
2754	0.00738308
2766	0.00814685
2778	0.00874089
2790	0.00840144
2802	0.0127294
2814	0.0136629
2826	0.0151905
2838	0.0180758
2850	0.0232525
2862	0.0320782
2874	0.050154
2886	0.0745946
2898	0.0784983
2910	0.0689088
2922	0.0680601
2934	0.0747643
2946	0.0851176
2958	0.0745097
2970	0.0799409
2982	0.102515
2994	0.0992897
3006	0.0529545
3018	0.0604225
3030	0.0727276
3042	0.0462503
3054	0.03717
3066	0.0511724
3078	0.0615257
3090	0.0375943
3102	0.0194336
3114	0.0124749
3126	0.00797712
3138	0.00695877
3150	0.00636472
3162	0.00644959
3174	0.00466746
3186	0.00483719
3198	0.00424315
3210	0.00432801
3222	0.00407342
3234	0.00407342
3246	0.00441288
3258	0.00492205
3270	0.00661931
3282	0.0055161
3294	0.00415829
3306	0.00449774
3318	0.00424315
3330	0.00398856
3342	0.00449774
3354	0.0045826
3366	0.00500692
3378	0.00585555
3390	0.00908034
3402	0.0115414
3414	0.0145116
3426	0.0196034
3438	0.0402251
3450	0.0692482
3462	0.0651748
3474	0.0530394
3486	0.0211309
3498	0.0159542
3510	0.0140873
3522	0.0109473
3534	0.00992897
3546	0.0122203
3558	0.0110322
3570	0.0131538
3582	0.00941979
3594	0.00585555
3606	0.00704363
3618	0.00492205
3630	0.00492205
3642	0.00534637
3654	0.00364911
3666	0.00585555
3678	0.00110322
3690	0.00475233
3702	0.00738308
3714	0.0055161
3726	0.00712849
3738	0.00653445
3750	0.00509178
3762	0.00594041
3774	0.00585555
3786	0.00772253
3798	0.00585555
3810	0.00661931
3822	0.00152753
3834	0.00806199
3846	0.00831657
3858	0.00203671
3870	0.00627986
3882	0.00941979
3894	0.00712849
3906	0.00594041
3918	0.00992897
3930	0.00933493
3942	0.00763767
3954	0.0084863
3966	0.00644959
