Infrared Spectrum: Epoxyanthracene, 1,4,4a,9,9a,10-hexahydro-2,3,9-trimethyl-9,10-,
Formula: C 17 H 20 O
CAS: 70289-24-6
Origin: Sadtler Research Labs Under US-EPA Contract
1/CM	ABSORBANCE
450	0
462	0.0464557
474	0.048345
486	0.038287
498	0.0356197
510	0.0325079
522	0.0408988
534	0.0499565
546	0.0879102
558	0.0593477
570	0.0397874
582	0.0389539
594	0.0322856
606	0.032619
618	0.0313965
630	0.0368422
642	0.101858
654	0.144146
666	0.0473448
678	0.0246171
690	0.0302295
702	0.030174
714	0.031841
726	0.0507345
738	0.158094
750	0.300795
762	0.084576
774	0.0371757
786	0.025395
798	0.0223943
810	0.0303962
822	0.029007
834	0.0544576
846	0.0692945
858	0.0582919
870	0.0811307
882	0.0522349
894	0.0388983
906	0.0249505
918	0.0387316
930	0.0443996
942	0.0380648
954	0.035064
966	0.0512346
978	0.121974
990	0.104136
1002	0.0438995
1014	0.0445108
1026	0.0280623
1038	0.0310631
1050	0.0356753
1062	0.0367311
1074	0.0340638
1086	0.0566248
1098	0.0348973
1110	0.019727
1122	0.0360087
1134	0.0336748
1146	0.0387316
1158	0.0447886
1170	0.0730177
1182	0.03662
1194	0.029007
1206	0.0397318
1218	0.0348973
1230	0.0346751
1242	0.0305074
1254	0.0500121
1266	0.0510679
1278	0.0553467
1290	0.051179
1302	0.0324523
1314	0.0316188
1326	0.0455666
1338	0.049512
1350	0.0611259
1362	0.0396763
1374	0.0640155
1386	0.15526
1398	0.0640155
1410	0.036231
1422	0.0391206
1434	0.0548466
1446	0.0870766
1458	0.119362
1470	0.0782412
1482	0.0312853
1494	0.0316188
1506	0.0307297
1518	0.0235613
1530	0.0187823
1542	0.0182266
1554	0.0267843
1566	0.0288403
1578	0.0295071
1590	0.0247282
1602	0.0291182
1614	0.0320077
1626	0.0285625
1638	0.0218386
1650	0.0185045
1662	0.0242837
1674	0.0287292
1686	0.0266731
1698	0.0272844
1710	0.0311742
1722	0.0296738
1734	0.0291182
1746	0.0268954
1758	0.0295071
1770	0.0301184
1782	0.0316188
1794	0.0361754
1806	0.0311186
1818	0.0247838
1830	0.0244504
1842	0.0233945
1854	0.023339
1866	0.0213385
1878	0.0224499
1890	0.0262841
1902	0.0273955
1914	0.0226722
1926	0.0236168
1938	0.0298406
1950	0.0208384
1962	0.0201715
1974	0.0198381
1986	0.0187823
1998	0.019338
2010	0.0188379
2022	0.0195047
2034	0.0190046
2046	0.0190046
2058	0.0193936
2070	0.0191157
2082	0.0192824
2094	0.0192269
2106	0.0192824
2118	0.0199493
2130	0.0192824
2142	0.0197826
2154	0.0199493
2166	0.0195047
2178	0.0198381
2190	0.0191713
2202	0.0197826
2214	0.0197826
2226	0.0193936
2238	0.019727
2250	0.0196159
2262	0.0200604
2274	0.0198937
2286	0.0201715
2298	0.0216163
2310	0.0230611
2322	0.0223943
2334	0.0212829
2346	0.0218942
2358	0.022561
2370	0.0206717
2382	0.0216719
2394	0.0204494
2406	0.0209495
2418	0.0206717
2430	0.0204494
2442	0.0212274
2454	0.0210051
2466	0.0212829
2478	0.0214496
2490	0.0208939
2502	0.0208939
2514	0.0210607
2526	0.0212274
2538	0.0208384
2550	0.0208939
2562	0.0208939
2574	0.0204494
2586	0.0214496
2598	0.0208384
2610	0.0216163
2622	0.0214496
2634	0.022561
2646	0.0235057
2658	0.0234501
2670	0.0235057
2682	0.0232278
2694	0.023339
2706	0.0246726
2718	0.0261174
2730	0.0294516
2742	0.0321189
2754	0.0308408
2766	0.0296183
2778	0.0301184
2790	0.0340638
2802	0.0383982
2814	0.0489007
2826	0.066016
2838	0.114028
2850	0.182766
2862	0.20555
2874	0.210495
2886	0.169541
2898	0.160872
2910	0.202327
2922	0.339304
2934	0.543076
2946	0.360532
2958	0.113194
2970	0.110304
2982	0.215941
2994	0.348362
3006	0.134699
3018	0.112805
3030	0.141145
3042	0.105859
3054	0.118418
3066	0.137311
3078	0.154871
3090	0.0838536
3102	0.0421769
3114	0.0308408
3126	0.0282846
3138	0.0273399
3150	0.0271732
3162	0.0258396
3174	0.0266731
3186	0.0248949
3198	0.0236168
3210	0.0237835
3222	0.0228944
3234	0.0228389
3246	0.0210607
3258	0.0212274
3270	0.022561
3282	0.0210607
3294	0.0216163
3306	0.0211718
3318	0.0191713
3330	0.0212829
3342	0.0196714
3354	0.020505
3366	0.0200048
3378	0.0210607
3390	0.0204494
3402	0.0205605
3414	0.019727
3426	0.0190602
3438	0.0206717
3450	0.0200048
3462	0.0203383
3474	0.0200048
3486	0.0198937
3498	0.0196159
3510	0.0198937
3522	0.0205605
3534	0.0202271
3546	0.0211162
3558	0.0208939
3570	0.0212829
3582	0.0232278
3594	0.0232278
3606	0.023728
3618	0.0228944
3630	0.0223387
3642	0.0239502
3654	0.0218942
3666	0.0238947
3678	0.0216163
3690	0.019727
3702	0.023339
3714	0.0204494
3726	0.0236724
3738	0.0242837
3750	0.0190046
3762	0.0230611
3774	0.0217275
3786	0.0228944
3798	0.0191713
3810	0.0213941
3822	0.020116
3834	0.0204494
3846	0.0232834
3858	0.0177265
3870	0.0174487
3882	0.0223387
3894	0.0211718
3906	0.023339
3918	0.0220053
3930	0.0190602
3942	0.021783
3954	0.0190046
3966	0.0250616
