Infrared Spectrum: Cyclohexaneethanol, .alpha.-ethyl-2-hydroxy-,
Formula: C 10 H 20 O 2
CAS: 70289-26-8
Origin: Sadtler Research Labs Under US-EPA Contract
1/CM	ABSORBANCE
450	0.0364812
462	0.000760025
474	0.00282295
486	0.026818
498	0.0274695
510	0.0264923
522	0.00944603
534	0.0191092
546	0.0222579
558	0.0277952
570	0.0175891
582	0.015852
594	0.0128118
606	0.00944603
618	0.0105318
630	0.0110747
642	0.0117261
654	0.0141147
666	0.0131376
678	0.0124861
690	0.00760025
702	0.0131376
714	0.0095546
726	0.0103146
738	0.0144405
750	0.0249722
762	0.0155262
774	0.0163948
786	0.0225836
798	0.0359383
810	0.0284467
822	0.0318125
834	0.0409328
846	0.0535275
858	0.0490759
870	0.0509217
882	0.0408242
894	0.0473387
906	0.0504874
918	0.0461444
930	0.0478816
942	0.0695966
954	0.0976089
966	0.100432
978	0.0913116
990	0.0830599
1002	0.0957631
1014	0.12117
1026	0.145925
1038	0.156022
1050	0.190983
1062	0.185989
1074	0.157108
1086	0.114655
1098	0.103472
1110	0.104992
1122	0.121278
1134	0.13789
1146	0.107489
1158	0.0910944
1170	0.0834942
1182	0.0870771
1194	0.0834942
1206	0.0776311
1218	0.0798026
1230	0.082517
1242	0.0831684
1254	0.0916373
1266	0.0944602
1278	0.0893572
1290	0.0841456
1302	0.0827341
1314	0.078174
1326	0.0765454
1338	0.0866428
1350	0.0894658
1362	0.0925059
1374	0.101843
1386	0.109661
1398	0.105318
1410	0.110421
1422	0.0852314
1434	0.0648193
1446	0.105318
1458	0.137565
1470	0.0857742
1482	0.0388698
1494	0.0247551
1506	0.0156348
1518	0.0120518
1530	0.0135719
1542	0.0123775
1554	0.0120518
1566	0.0114004
1578	0.0105318
1590	0.0110747
1602	0.0119432
1614	0.00922887
1626	0.0111832
1638	0.0108575
1650	0.00890315
1662	0.0104232
1674	0.0117261
1686	0.0135719
1698	0.0131376
1710	0.0156348
1722	0.0169377
1734	0.0169377
1746	0.0154176
1758	0.0138976
1770	0.0133547
1782	0.0121604
1794	0.00890315
1806	0.0110747
1818	0.00890315
1830	0.00857742
1842	0.00727452
1854	0.0091203
1866	0.0082517
1878	0.00890315
1890	0.00814312
1902	0.00988032
1914	0.00901172
1926	0.0069488
1938	0.0082517
1950	0.0078174
1962	0.00760025
1974	0.00705737
1986	0.00727452
1998	0.00684023
2010	0.00760025
2022	0.0065145
2034	0.00727452
2046	0.0069488
2058	0.00684023
2070	0.0065145
2082	0.00629735
2094	0.00629735
2106	0.00618877
2118	0.00629735
2130	0.00684023
2142	0.00673165
2154	0.00684023
2166	0.0065145
2178	0.00673165
2190	0.00684023
2202	0.00673165
2214	0.00673165
2226	0.00586305
2238	0.0065145
2250	0.00716595
2262	0.00640592
2274	0.0060802
2286	0.00586305
2298	0.00488587
2310	0.00152005
2322	0.0026058
2334	0.00488587
2346	0.00770882
2358	0.00575448
2370	0.0104232
2382	0.008686
2394	0.00901172
2406	0.00814312
2418	0.00770882
2430	0.00727452
2442	0.00684023
2454	0.00597162
2466	0.0065145
2478	0.00629735
2490	0.00662307
2502	0.00629735
2514	0.00640592
2526	0.00640592
2538	0.00673165
2550	0.00662307
2562	0.0073831
2574	0.00792598
2586	0.00922887
2598	0.0099889
2610	0.0105318
2622	0.0114004
2634	0.0121604
2646	0.0141147
2658	0.0170463
2670	0.0194349
2682	0.018132
2694	0.0161777
2706	0.0156348
2718	0.0156348
2730	0.0162862
2742	0.0180234
2754	0.0187835
2766	0.0198692
2778	0.0232351
2790	0.0286638
2802	0.033984
2814	0.0389784
2826	0.0483159
2838	0.073071
2850	0.142233
2862	0.323662
2874	0.417579
2886	0.335605
2898	0.251025
2910	0.298798
2922	0.47621
2934	0.910727
2946	1.018
2958	0.475124
2970	0.400859
2982	0.167314
2994	0.0575447
3006	0.0342011
3018	0.025298
3030	0.0200864
3042	0.0175891
3054	0.013029
3066	0.0104232
3078	0.00814312
3090	0.0082517
3102	0.00705737
3114	0.00662307
3126	0.00542875
3138	0.0060802
3150	0.00466872
3162	0.00456015
3174	0.00532017
3186	0.00445158
3198	0.00401727
3210	0.00380012
3222	0.0039087
3234	0.0034744
3246	0.00249723
3258	0.0030401
3270	0.00293152
3282	0.00238865
3294	0.00206292
3306	0.00249723
3318	0.00282295
3330	0.0026058
3342	0.00249723
3354	0.00282295
3366	0.0021715
3378	0.00228007
3390	0.00282295
3402	0.00238865
3414	0.00238865
3426	0.00206292
3438	0.00293152
3450	0.00293152
3462	0.00249723
3474	0.0039087
3486	0.00401727
3498	0.00510302
3510	0.00662307
3522	0.00966317
3534	0.0144405
3546	0.0249722
3558	0.0605848
3570	0.126056
3582	0.130724
3594	0.0776311
3606	0.0438643
3618	0.030401
3630	0.0287724
3642	0.0436471
3654	0.0613449
3666	0.0372412
3678	0.0132461
3690	0.00586305
3702	0.00401727
3714	0.00380012
3726	0.00238865
3738	0.00314868
3750	0.00228007
3762	0.0021715
3774	0.00336582
3786	0.00293152
3798	0.00152005
3810	0.00271437
3822	0.00152005
3834	0.00152005
3846	0.00152005
3858	0.00152005
3870	0.00152005
3882	0.00184578
3894	0.00152005
3906	0.00152005
3918	0.00152005
3930	0.00152005
3942	0.00152005
3954	0.00152005
3966	0.00152005
