Infrared Spectrum: 1-Butanol, 4-diisobutylamino-,
Formula: C 12 H 27 N O
CAS: 70289-33-7
Origin: Sadtler Research Labs Under US-EPA Contract
1/CM	ABSORBANCE
450	0
462	0.0261657
474	0.0224598
486	0.0340266
498	0.0334651
510	0.0157219
522	0.0357111
534	0.0323421
546	0.0261657
558	0.0335774
570	0.0220106
582	0.0232459
594	0.0236951
606	0.0221229
618	0.0196523
630	0.0175186
642	0.0181924
654	0.015385
666	0.0192031
678	0.0193154
690	0.0168449
702	0.0188662
714	0.0234705
726	0.0189785
738	0.0285239
750	0.0193154
762	0.0234705
774	0.0235828
786	0.0227967
798	0.0284116
810	0.0379571
822	0.0406522
834	0.0352619
846	0.0405399
858	0.0459303
870	0.0423367
882	0.041326
894	0.0472779
906	0.0477271
918	0.0582832
930	0.0605292
942	0.0579463
954	0.0558126
966	0.0535666
978	0.0546896
990	0.0680532
1002	0.0729943
1014	0.0897269
1026	0.143518
1038	0.196748
1050	0.285801
1062	0.383838
1074	0.32679
1086	0.257277
1098	0.17732
1110	0.120721
1122	0.0899515
1134	0.0765879
1146	0.0696254
1158	0.0716468
1170	0.0775986
1182	0.075128
1194	0.0998338
1206	0.101631
1218	0.0787216
1230	0.0735558
1242	0.0692885
1254	0.0677163
1266	0.0797323
1278	0.0951173
1290	0.091636
1302	0.0815291
1314	0.0724329
1326	0.0744542
1338	0.0908499
1350	0.0886039
1362	0.118026
1374	0.173951
1386	0.207865
1398	0.150481
1410	0.070973
1422	0.0563741
1434	0.0626628
1446	0.0836628
1458	0.149695
1470	0.221229
1482	0.113534
1494	0.0488501
1506	0.0352619
1518	0.0276256
1530	0.0235828
1542	0.0197646
1554	0.0226844
1566	0.0207753
1578	0.0192031
1590	0.021786
1602	0.0214491
1614	0.0201015
1626	0.0218983
1638	0.0216737
1650	0.020663
1662	0.0222352
1674	0.0221229
1686	0.0209999
1698	0.0285239
1710	0.036048
1722	0.0249304
1734	0.0239197
1746	0.0243689
1758	0.0257165
1770	0.0250427
1782	0.0260534
1794	0.021786
1806	0.0208876
1818	0.0205507
1830	0.0183047
1842	0.0169571
1854	0.017294
1866	0.0176309
1878	0.0179678
1890	0.0170694
1902	0.0176309
1914	0.0170694
1926	0.0178555
1938	0.0178555
1950	0.0170694
1962	0.0169571
1974	0.0167326
1986	0.0170694
1998	0.0171817
2010	0.0174063
2022	0.0171817
2034	0.0171817
2046	0.017294
2058	0.0170694
2070	0.0166203
2082	0.0163957
2094	0.0160588
2106	0.0162834
2118	0.0159465
2130	0.0161711
2142	0.0158342
2154	0.0154973
2166	0.0160588
2178	0.0162834
2190	0.0161711
2202	0.0158342
2214	0.0152727
2226	0.0154973
2238	0.0157219
2250	0.0158342
2262	0.0159465
2274	0.0159465
2286	0.0168449
2298	0.0171817
2310	0.0168449
2322	0.0160588
2334	0.0152727
2346	0.0158342
2358	0.0156096
2370	0.0167326
2382	0.0175186
2394	0.0171817
2406	0.017294
2418	0.0174063
2430	0.0174063
2442	0.0170694
2454	0.0167326
2466	0.0167326
2478	0.0170694
2490	0.0178555
2502	0.0177432
2514	0.0181924
2526	0.0185293
2538	0.0192031
2550	0.0201015
2562	0.0211122
2574	0.0227967
2586	0.0244812
2598	0.0265026
2610	0.0278502
2622	0.0285239
2634	0.0308822
2646	0.0339143
2658	0.0367218
2670	0.0385186
2682	0.0414383
2694	0.0482886
2706	0.0582832
2718	0.074005
2730	0.0898392
2742	0.0945558
2754	0.102978
2766	0.117914
2778	0.151491
2790	0.211122
2802	0.330608
2814	0.304667
2826	0.210785
2838	0.167213
2850	0.168336
2862	0.217523
2874	0.423367
2886	0.457282
2898	0.351945
2910	0.475137
2922	0.536789
2934	0.645045
2946	0.738254
2958	1.01945
2970	0.841344
2982	0.363063
2994	0.13285
3006	0.067604
3018	0.0450319
3030	0.0331282
3042	0.0267272
3054	0.0232459
3066	0.0211122
3078	0.0201015
3090	0.01954
3102	0.0187539
3114	0.0178555
3126	0.0176309
3138	0.0177432
3150	0.0181924
3162	0.0192031
3174	0.0198769
3186	0.0193154
3198	0.0176309
3210	0.0162834
3222	0.0157219
3234	0.0152727
3246	0.0169571
3258	0.0170694
3270	0.0175186
3282	0.0174063
3294	0.017294
3306	0.0170694
3318	0.0171817
3330	0.0177432
3342	0.0175186
3354	0.0177432
3366	0.0187539
3378	0.0183047
3390	0.0181924
3402	0.017294
3414	0.0169571
3426	0.0176309
3438	0.0171817
3450	0.0180801
3462	0.0180801
3474	0.0179678
3486	0.0159465
3498	0.0175186
3510	0.0161711
3522	0.017294
3534	0.0169571
3546	0.0169571
3558	0.01954
3570	0.0185293
3582	0.0190908
3594	0.0177432
3606	0.0180801
3618	0.0180801
3630	0.0186416
3642	0.0267272
3654	0.0390801
3666	0.0581709
3678	0.0519944
3690	0.025155
3702	0.0196523
3714	0.0161711
3726	0.0171817
3738	0.0152727
3750	0.0152727
3762	0.0160588
3774	0.0177432
3786	0.0157219
3798	0.0152727
3810	0.0177432
3822	0.0152727
3834	0.0181924
3846	0.0158342
3858	0.0152727
3870	0.0152727
3882	0.016508
3894	0.015385
3906	0.0152727
3918	0.0151604
3930	0.0160588
3942	0.0152727
3954	0.0151604
3966	0.0157219
