Infrared Spectrum: Pyridine, 2-(dodecyloxy)-
Formula: C 17 H 29 N O
CAS: 70289-09-7
Origin: Sadtler Research Labs Under US-EPA Contract
1/CM	ABSORBANCE
450	0.0403173
462	0.0381164
474	0.0165071
486	0.0230099
498	0.0275118
510	0.0351151
522	0.053423
534	0.0236101
546	0.0173074
558	0.0151065
570	0.0086037
582	0.0151065
594	0.0159068
606	0.00870374
618	0.0136058
630	0.0136058
642	0.0206089
654	0.0156067
666	0.0123053
678	0.0107046
690	0.00640275
702	0.020909
714	0.0319137
726	0.0486209
738	0.0961413
750	0.0397171
762	0.0645277
774	0.199586
786	0.134058
798	0.0467201
810	0.0291125
822	0.0241104
834	0.0229098
846	0.0298128
858	0.0304131
870	0.0128055
882	0.0164071
894	0.0148064
906	0.0155067
918	0.0219094
930	0.0253109
942	0.0266114
954	0.0425183
966	0.0513221
978	0.0676291
990	0.121252
1002	0.126254
1014	0.147864
1026	0.101744
1038	0.121852
1050	0.147563
1062	0.0924397
1074	0.0593255
1086	0.0360155
1098	0.0245105
1110	0.0134058
1122	0.0161069
1134	0.0447192
1146	0.0648279
1158	0.0124053
1170	0.0102044
1182	0.0123053
1194	0.014006
1206	0.0206089
1218	0.0354152
1230	0.067429
1242	0.148464
1254	0.25521
1266	0.386466
1278	0.344248
1290	0.617365
1302	0.236502
1314	0.360355
1326	0.151365
1338	0.0686295
1350	0.0527227
1362	0.0614264
1374	0.101244
1386	0.0975419
1398	0.0437188
1410	0.0439189
1422	0.132257
1434	0.570545
1446	0.192383
1458	0.217193
1470	0.473203
1482	0.333643
1494	0.0868373
1506	0.051222
1518	0.0246106
1530	0.0183079
1542	0.0245105
1554	0.0522224
1566	0.168172
1578	0.18548
1590	0.309233
1602	0.365857
1614	0.16257
1626	0.039617
1638	0.0131056
1650	0.00590254
1662	0.00220095
1674	0.00570245
1686	0.00560241
1698	0.00810348
1710	0.00580249
1722	0.00590254
1734	0.00480206
1746	0.00480206
1758	0.00330142
1770	0.00410176
1782	0.00320138
1794	0.00620267
1806	0.00590254
1818	0.00540232
1830	0.00830357
1842	0.00810348
1854	0.00270116
1866	0.00380163
1878	0.00320138
1890	0.00460198
1902	0.00880378
1914	0.0072031
1926	0.00850366
1938	0.00710305
1950	0.00690297
1962	0.00640275
1974	0.00310133
1986	0.00360155
1998	0.00410176
2010	0.00490211
2022	0.00570245
2034	0.00530228
2046	0.00540232
2058	0.00550237
2070	0.00600258
2082	0.00710305
2094	0.00710305
2106	0.00700301
2118	0.00680292
2130	0.00630271
2142	0.00530228
2154	0.00530228
2166	0.00550237
2178	0.00470202
2190	0.00450194
2202	0.00360155
2214	0.00300129
2226	0.00380163
2238	0.00480206
2250	0.00410176
2262	0.00400172
2274	0.00420181
2286	0.00480206
2298	0.00450194
2310	0.00520224
2322	0.00920396
2334	0.0111048
2346	0.0141061
2358	0.0108046
2370	0.00890383
2382	0.00370159
2394	0.00300129
2406	0.0028012
2418	0.00300129
2430	0.00250108
2442	0.00160069
2454	0.00150065
2466	0.000800344
2478	0.00110047
2490	0.0014006
2502	0.00220095
2514	0.00310133
2526	0.00420181
2538	0.00580249
2550	0.00840361
2562	0.0102044
2574	0.0100043
2586	0.00680292
2598	0.00530228
2610	0.00540232
2622	0.00510219
2634	0.0065028
2646	0.00640275
2658	0.00830357
2670	0.00940404
2682	0.0104045
2694	0.0101043
2706	0.00950409
2718	0.0112048
2730	0.0130056
2742	0.0146063
2754	0.014006
2766	0.014006
2778	0.0165071
2790	0.0225097
2802	0.030313
2814	0.0417179
2826	0.0601258
2838	0.100043
2850	0.238803
2862	0.44149
2874	0.32504
2886	0.250908
2898	0.283922
2910	0.421081
2922	0.691997
2934	1.00043
2946	0.667687
2958	0.428484
2970	0.343348
2982	0.160669
2994	0.081335
3006	0.0567244
3018	0.0619266
3030	0.0567244
3042	0.0417179
3054	0.0480206
3066	0.0493212
3078	0.0542233
3090	0.0503216
3102	0.0226097
3114	0.0104045
3126	0.00740318
3138	0.00710305
3150	0.00630271
3162	0.00560241
3174	0.00590254
3186	0.00500215
3198	0.00520224
3210	0.00500215
3222	0.00430185
3234	0.00320138
3246	0.00310133
3258	0.00330142
3270	0.00370159
3282	0.00420181
3294	0.00410176
3306	0.00450194
3318	0.00400172
3330	0.00420181
3342	0.00470202
3354	0.00620267
3366	0.00610262
3378	0.00710305
3390	0.00660284
3402	0.00620267
3414	0.00630271
3426	0.00580249
3438	0.00740318
3450	0.00800344
3462	0.00660284
3474	0.0072031
3486	0.00580249
3498	0.00680292
3510	0.00710305
3522	0.00690297
3534	0.00780335
3546	0.0065028
3558	0.00690297
3570	0.00540232
3582	0.00810348
3594	0.00550237
3606	0.00940404
3618	0.00910391
3630	0.00600258
3642	0.0086037
3654	0.000500215
3666	0.00980421
3678	0.00900387
3690	0.00510219
3702	0.011605
3714	0.00700301
3726	0.0105045
3738	0.00890383
3750	0.00100043
3762	0.00990426
3774	0.00990426
3786	0.00990426
3798	0.00550237
3810	0.0126054
3822	0.00540232
3834	0.00840361
3846	0.00890383
3858	0.00900387
3870	0.0103044
3882	0.00830357
3894	0.0108046
3906	0.00900387
3918	0.00820353
3930	0.0130056
3942	0.0132057
3954	0.0127055
3966	0.011705
