Infrared Spectrum: Salicylaldehyde, 5-nitro-, di-propyl hydrazone
Formula: C 13 H 19 N 3 O 3
CAS: 70289-42-8
Origin: Sadtler Research Labs Under US-EPA Contract
1/CM	ABSORBANCE
450	0.00312052
462	0.00602582
474	0.01033
486	0.010868
498	0.00651004
510	0.0026363
522	0.00710186
534	0.00920014
546	0.00500359
558	0.00150646
570	0.00312052
582	0.00317432
594	0.00387374
606	0.00516499
618	0.00403515
630	0.0109756
642	0.0441176
654	0.0185617
666	0.0242109
678	0.0407281
690	0.0354017
702	0.0165172
714	0.0207676
726	0.0292683
738	0.0234039
750	0.0785509
762	0.0400825
774	0.0170552
786	0.0195839
798	0.0180775
810	0.0180775
822	0.0485294
834	0.0692432
846	0.02717
858	0.0139885
870	0.0147417
882	0.0216822
894	0.0363702
906	0.0682747
918	0.0522955
930	0.021198
942	0.0207676
954	0.0162482
966	0.0204448
978	0.0167862
990	0.0178623
1002	0.0213594
1014	0.0300753
1026	0.0381994
1038	0.0456241
1050	0.0460545
1062	0.0735473
1074	0.121915
1086	0.149247
1098	0.15113
1110	0.0832855
1122	0.096736
1134	0.114975
1146	0.117719
1158	0.10981
1170	0.0908178
1182	0.0982425
1194	0.0938307
1206	0.0875359
1218	0.0940459
1230	0.10755
1242	0.119925
1254	0.124014
1266	0.168077
1278	0.261854
1290	0.290262
1302	0.253515
1314	0.224354
1326	0.26562
1338	0.444136
1350	0.514562
1362	0.207891
1374	0.111801
1386	0.107658
1398	0.0823171
1410	0.0711262
1422	0.0989419
1434	0.133429
1446	0.166194
1458	0.209236
1470	0.243938
1482	0.259433
1494	0.213433
1506	0.137357
1518	0.141338
1530	0.162267
1542	0.184003
1554	0.19175
1566	0.139347
1578	0.149623
1590	0.178461
1602	0.125628
1614	0.109541
1626	0.0985115
1638	0.0701578
1650	0.0376076
1662	0.0204986
1674	0.0176471
1686	0.0151184
1698	0.0080703
1710	0.00753228
1722	0.0101686
1734	0.0133429
1746	0.0117826
1758	0.0122131
1770	0.0124821
1782	0.00973816
1794	0.00661765
1806	0.00683285
1818	0.0054878
1830	0.00322812
1842	0.00419656
1854	0.00193687
1866	0.00322812
1878	0.00349713
1890	0.00489598
1902	0.00591822
1914	0.00554161
1926	0.00451937
1938	0.00392755
1950	0.00333572
1962	0.00312052
1974	0.00312052
1986	0.00344333
1998	0.00371234
2010	0.00338953
2022	0.00408895
2034	0.00441176
2046	0.00489598
2058	0.00408895
2070	0.00435796
2082	0.00408895
2094	0.00387374
2106	0.00398135
2118	0.00430416
2130	0.00392755
2142	0.00360473
2154	0.00392755
2166	0.00462697
2178	0.0054878
2190	0.00694046
2202	0.0101686
2214	0.0180775
2226	0.0227582
2238	0.0156026
2250	0.00833931
2262	0.00564921
2274	0.00516499
2286	0.00651004
2298	0.00747848
2310	0.00839311
2322	0.00774749
2334	0.00586442
2346	0.00780129
2358	0.00753228
2370	0.00629483
2382	0.00737087
2394	0.00381994
2406	0.00349713
2418	0.00344333
2430	0.00312052
2442	0.0026363
2454	0.00166786
2466	0.00107604
2478	0.000753228
2490	0.000753228
2502	0.00150646
2514	0.00166786
2526	0.00204448
2538	0.00156026
2550	0.000860832
2562	0.00156026
2574	0.00107604
2586	0.00123745
2598	0.000968436
2610	0.000107604
2622	0.000215208
2634	0.00150646
2646	0.0027977
2658	0.00349713
2670	0.00360473
2682	0.00381994
2694	0.0052726
2706	0.00677905
2718	0.00920014
2730	0.0115674
2742	0.0140961
2754	0.0159792
2766	0.0188845
2778	0.0269548
2790	0.0430416
2802	0.0681133
2814	0.090764
2826	0.0997489
2838	0.0998027
2850	0.103838
2862	0.123045
2874	0.160061
2886	0.188522
2898	0.171521
2910	0.17378
2922	0.219028
2934	0.286926
2946	0.296664
2958	0.287303
2970	0.35009
2982	0.26024
2994	0.111263
3006	0.0529412
3018	0.0305595
3030	0.020929
3042	0.0180237
3054	0.0167862
3066	0.0185079
3078	0.0213594
3090	0.021467
3102	0.0196377
3114	0.0158716
3126	0.0135043
3138	0.0123207
3150	0.0115674
3162	0.0111908
3174	0.011406
3186	0.0110294
3198	0.0107604
3210	0.00968436
3222	0.0081241
3234	0.00710186
3246	0.0054878
3258	0.00441176
3270	0.00338953
3282	0.00215208
3294	0.00182927
3306	0.00134505
3318	0.00107604
3330	0.00172166
3342	0.00209828
3354	0.00188307
3366	0.00188307
3378	0.00193687
3390	0.00177547
3402	0.00134505
3414	0.00199067
3426	0.00220588
3438	0.00220588
3450	0.00247489
3462	0.00333572
3474	0.00290531
3486	0.0026363
3498	0.00231349
3510	0.00312052
3522	0.00430416
3534	0.00312052
3546	0.0053802
3558	0.00521879
3570	0.0291069
3582	0.0200681
3594	0.0053802
3606	0.00188307
3618	0.00285151
3630	0.00602582
3642	0.00419656
3654	0.00387374
3666	0.00188307
3678	0.00209828
3690	0.00252869
3702	0.00225968
3714	0.00145265
3726	0.00425036
3738	0.00172166
3750	0.00107604
3762	0.00134505
3774	0.000484218
3786	0.00102224
3798	0
3810	0.00123745
3822	0.00129125
3834	0.000914634
3846	0.00172166
3858	0.00161406
3870	0.000645624
3882	0.00215208
3894	0.000322812
3906	0.00338953
3918	0.00242109
3930	0.00193687
3942	0.000914634
3954	0.00139885
3966	0.00306671
