Infrared Spectrum: Benzylamine, N-octyl-N-pentyl-,
Formula: C 20 H 35 N
CAS: 70289-19-9
Origin: Sadtler Research Labs Under US-EPA Contract
1/CM	ABSORBANCE
450	0.0221823
462	0.0129721
474	0.0116749
486	0.00402135
498	0.00518884
510	0.0127127
522	0.0125829
534	0.00959935
546	0.00713465
558	0.00921019
570	0.0147882
582	0.0128424
594	0.0073941
606	0.015826
618	0.0193284
630	0.0116749
642	0.0160854
654	0.00972907
666	0.0162151
678	0.0272414
690	0.0848375
702	0.165783
714	0.10715
726	0.13971
738	0.180312
750	0.0621364
762	0.0399541
774	0.0346355
786	0.0179015
798	0.0140099
810	0.0259442
822	0.0225715
834	0.0224417
846	0.0243875
858	0.0229606
870	0.019977
882	0.0230903
894	0.0299656
906	0.0387866
918	0.0290575
930	0.0259442
942	0.0339869
954	0.0425485
966	0.0513695
978	0.0456618
990	0.0456618
1002	0.043716
1014	0.0465698
1026	0.090675
1038	0.0648605
1050	0.0682332
1062	0.0895075
1074	0.107928
1086	0.123494
1098	0.127386
1110	0.0970313
1122	0.0704385
1134	0.0706979
1146	0.0963827
1158	0.0910641
1170	0.0745896
1182	0.0665469
1194	0.0646011
1206	0.0603203
1218	0.052537
1230	0.0537045
1242	0.0601905
1254	0.0657685
1266	0.0608391
1278	0.0643416
1290	0.0730329
1302	0.0766651
1314	0.0764057
1326	0.0736815
1338	0.0891183
1350	0.115452
1362	0.135818
1374	0.116489
1386	0.0950855
1398	0.0534451
1410	0.0402135
1422	0.0396946
1434	0.0533153
1446	0.112209
1458	0.178756
1470	0.158779
1482	0.0797784
1494	0.096253
1506	0.0431971
1518	0.0249064
1530	0.0194581
1542	0.00596717
1554	0.0115452
1566	0.0124532
1578	0.0182907
1590	0.0177718
1602	0.0319114
1614	0.0207554
1626	0.0131018
1638	0.0172529
1650	0.0179015
1662	0.0128424
1674	0.0212742
1686	0.0131018
1698	0.0380083
1710	0.0547423
1722	0.0277603
1734	0.019069
1746	0.0207554
1758	0.0245173
1770	0.0250362
1782	0.016734
1794	0.0186798
1806	0.013491
1818	0.00583744
1830	0.00648605
1842	0.00207554
1854	0.00298358
1866	0.00687521
1878	0.00609689
1890	0.00350247
1902	0.00272414
1914	0.00155665
1926	0.00428079
1938	0.0107668
1950	0.0080427
1962	0.00428079
1974	0.00220526
1986	0.00207554
1998	0.000778326
2010	0.00142693
2022	0.00155665
2034	0.00194581
2046	0.00142693
2058	0.000778326
2070	0.000648605
2082	0.000518884
2094	0.000518884
2106	0
2118	0.000389163
2130	0.000518884
2142	0.000778326
2154	0.00103777
2166	0.00168637
2178	0.00181609
2190	0.00194581
2202	0.00168637
2214	0.00194581
2226	0.00207554
2238	0.00220526
2250	0.00272414
2262	0.00324302
2274	0.00298358
2286	0.00324302
2298	0.00479968
2310	0.00765354
2322	0.00869131
2334	0.00946963
2346	0.0163448
2358	0.00882103
2370	0.00998852
2382	0.00622661
2394	0.00466996
2406	0.00544828
2418	0.005578
2430	0.00518884
2442	0.00544828
2454	0.00544828
2466	0.00544828
2478	0.005578
2490	0.00596717
2502	0.00661577
2514	0.0073941
2526	0.00817242
2538	0.00921019
2550	0.0103777
2562	0.0118046
2574	0.0131018
2586	0.0155665
2598	0.0172529
2610	0.0189393
2622	0.0206256
2634	0.022312
2646	0.0250362
2658	0.0290575
2670	0.0333383
2682	0.0380083
2694	0.0428079
2706	0.0499426
2718	0.0564286
2730	0.0633038
2742	0.0738112
2754	0.0809459
2766	0.0924911
2778	0.117787
2790	0.194452
2802	0.297321
2814	0.267744
2826	0.222082
2838	0.201068
2850	0.260739
2862	0.513825
2874	0.472184
2886	0.420555
2898	0.392276
2910	0.538861
2922	0.844224
2934	1.29721
2946	1.04309
2958	0.711909
2970	0.717617
2982	0.285386
2994	0.142563
3006	0.101312
3018	0.0943072
3030	0.152552
3042	0.114933
3054	0.0819837
3066	0.13504
3078	0.117787
3090	0.0880806
3102	0.0490345
3114	0.0361922
3126	0.0239984
3138	0.0206256
3150	0.0188095
3162	0.0191987
3174	0.0188095
3186	0.0164746
3198	0.0155665
3210	0.0147882
3222	0.0131018
3234	0.0125829
3246	0.0121938
3258	0.0116749
3270	0.0105074
3282	0.011156
3294	0.011156
3306	0.011156
3318	0.0106371
3330	0.010248
3342	0.0112857
3354	0.0107668
3366	0.0107668
3378	0.0112857
3390	0.0112857
3402	0.0110263
3414	0.0119343
3426	0.0106371
3438	0.0119343
3450	0.010248
3462	0.0105074
3474	0.0118046
3486	0.0116749
3498	0.011156
3510	0.00895075
3522	0.0115452
3534	0.00959935
3546	0.0121938
3558	0.00856159
3570	0.0141396
3582	0.0184204
3594	0.0141396
3606	0.0156962
3618	0.0105074
3630	0.0163448
3642	0.0151774
3654	0.0159557
3666	0.0206256
3678	0.0024647
3690	0.0115452
3702	0.0179015
3714	0.0155665
3726	0.00998852
3738	0.00713465
3750	0.0241281
3762	0.0112857
3774	0.0108966
3786	0.0137504
3798	0.0179015
3810	0.0186798
3822	0.00713465
3834	0.0175123
3846	0.022312
3858	0.00454023
3870	0.00998852
3882	0.0212742
3894	0.0127127
3906	0.0112857
3918	0.0181609
3930	0.0133613
3942	0.0182907
3954	0.0188095
3966	0.0194581
