Infrared Spectrum: Butanenitrile, 4-(dipropylamino)-
Formula: C 10 H 20 N 2
CAS: 70288-99-2
Origin: Sadtler Research Labs Under US-EPA Contract
1/CM	ABSORBANCE
450	0.0292571
462	0.0285727
474	0.0391805
486	0.0195903
498	0.0329356
510	0.0275461
522	0.0147996
534	0.0199325
546	0.0295993
558	0.00650157
570	0.0160828
582	0.0293426
594	0.0193336
606	0.024552
618	0.0344754
630	0.0171094
642	0.0124043
654	0.0219856
666	0.00504727
678	0.0192481
690	0.0298559
702	0.0289149
714	0.0287438
726	0.0365286
738	0.0407204
750	0.0329356
762	0.0322512
774	0.0238676
786	0.0291715
798	0.023611
810	0.0219
822	0.0368708
834	0.0438856
846	0.0386672
858	0.0448266
870	0.0448266
882	0.042859
894	0.050986
906	0.0339622
918	0.0266051
930	0.0304547
942	0.0319946
954	0.0272895
966	0.0337055
978	0.0485907
990	0.0466231
1002	0.0638181
1014	0.0718595
1026	0.0633048
1038	0.0712607
1050	0.0840927
1062	0.10719
1074	0.155353
1086	0.192395
1098	0.130374
1110	0.0853759
1122	0.0652724
1134	0.0556911
1146	0.0670688
1158	0.0757946
1170	0.0493606
1182	0.0838361
1194	0.101202
1206	0.0663845
1218	0.050986
1230	0.0456821
1242	0.0465376
1254	0.0506438
1266	0.0606528
1278	0.0668978
1290	0.0823818
1302	0.0793876
1314	0.0612517
1326	0.0597118
1338	0.0733993
1350	0.098208
1362	0.101373
1374	0.110441
1386	0.124043
1398	0.0731427
1410	0.0429446
1422	0.0531247
1434	0.0851193
1446	0.0934173
1458	0.148937
1470	0.175115
1482	0.0816118
1494	0.034561
1506	0.0303692
1518	0.024552
1530	0.0251508
1542	0.0263485
1554	0.0171949
1566	0.0150563
1578	0.0192481
1590	0.0124899
1602	0.0152274
1614	0.0186492
1626	0.016425
1638	0.0197614
1650	0.0172805
1662	0.013602
1674	0.0130031
1686	0.0193336
1698	0.0149707
1710	0.0166817
1722	0.0218145
1734	0.0199325
1746	0.0123188
1758	0.0104367
1770	0.00958126
1782	0.00769923
1794	0.0106934
1806	0.00701485
1818	0.00761368
1830	0.00650157
1842	0.00393516
1854	0.00633048
1866	0.00615938
1878	0.00615938
1890	0.0071004
1902	0.00556056
1914	0.00350743
1926	0.00590274
1938	0.00453399
1950	0.00427735
1962	0.00778478
1974	0.00650157
1986	0.00479063
1998	0.0041918
2010	0.00461954
2022	0.00188203
2034	0.00521837
2046	0.00410626
2058	0.00367852
2070	0.00521837
2082	0.0043629
2094	0.0029086
2106	0.00299415
2118	0.0041918
2130	0.00282305
2142	0.00393516
2154	0.00239532
2166	0.00299415
2178	0.00307969
2190	0.00333633
2202	0.00461954
2214	0.00556056
2226	0.00453399
2238	0.00633048
2250	0.0185637
2262	0.0105223
2274	0.00504727
2286	0.00470509
2298	0.00333633
2310	0.00350743
2322	0.00795587
2334	0.00402071
2346	0.0058172
2358	0.00675821
2370	0.00667267
2382	0.00658712
2394	0.00393516
2406	0.0043629
2418	0.00282305
2430	0.00444844
2442	0.00325079
2454	0.00333633
2466	0.0058172
2478	0.00410626
2490	0.00504727
2502	0.0041918
2514	0.00342188
2526	0.0043629
2538	0.00615938
2550	0.00701485
2562	0.00932462
2574	0.0100945
2586	0.00966681
2598	0.0123188
2610	0.0118055
2622	0.013602
2634	0.0177082
2646	0.0207879
2658	0.0210446
2670	0.0287438
2682	0.0311391
2694	0.0289149
2706	0.0382395
2718	0.0508149
2730	0.0621927
2742	0.0751103
2754	0.081954
2766	0.0861458
2778	0.110185
2790	0.140981
2802	0.235853
2814	0.353224
2826	0.280851
2838	0.177082
2850	0.129604
2862	0.136704
2874	0.22918
2886	0.338424
2898	0.24398
2910	0.252535
2922	0.292998
2934	0.426537
2946	0.571967
2958	0.542881
2970	0.85547
2982	0.449122
2994	0.132854
3006	0.0652724
3018	0.0485907
3030	0.0411481
3042	0.030027
3054	0.0224989
3066	0.0219856
3078	0.0186492
3090	0.0157406
3102	0.0174516
3114	0.0113778
3126	0.0132598
3138	0.0144574
3150	0.012832
3162	0.0117199
3174	0.0144574
3186	0.0102656
3198	0.00872579
3210	0.00975236
3222	0.00752814
3234	0.0108645
3246	0.0100945
3258	0.0111211
3270	0.00846915
3282	0.00846915
3294	0.00479063
3306	0.00692931
3318	0.00864025
3330	0.00744259
3342	0.0114633
3354	0.00735704
3366	0.00624493
3378	0.00821251
3390	0.00821251
3402	0.00453399
3414	0.00923908
3426	0.00915353
3438	0.00325079
3450	0.00769923
3462	0.00658712
3474	0.00667267
3486	0.00829806
3498	0.010009
3510	0.00359297
3522	0.00778478
3534	0.00316524
3546	0.00256641
3558	0.00342188
3570	0.00650157
3582	0.0058172
3594	0.00496173
3606	0.00487618
3618	0.00359297
3630	0.00821251
3642	0.0012832
3654	0.00307969
3666	0.00504727
3678	0.00573165
3690	0.00667267
3702	0.00453399
3714	0.00410626
3726	0.00307969
3738	0.00941017
3750	0.00299415
3762	0.00282305
3774	0.00248086
3786	0.00119766
3798	0.00213868
3810	0.00496173
3822	0.00650157
3834	0.00521837
3846	0.00966681
3858	0.0056461
3870	0.00547501
3882	0.00265196
3894	0.00119766
3906	0.00111211
3918	0.00333633
3930	0.00530391
3942	0.0101801
3954	0.000256641
3966	0.00119766
