Infrared Spectrum: Cyclohexanecarboxylic acid, nonyl ester
Formula: C 16 H 30 O 2
CAS: 70289-37-1
Origin: Sadtler Research Labs Under US-EPA Contract
1/CM	ABSORBANCE
450	0.0327825
462	0.00271303
474	0.00226086
486	0.0107391
498	0.0163912
510	0.0169564
522	0.00779997
534	0.0139043
546	0.00904344
558	0.0119826
570	0.0120956
582	0.0124347
594	0.00463476
606	0.015713
618	0.00655649
630	0.0117565
642	0.010513
654	0.00859127
666	0.0119826
678	0.0137912
690	0.015826
702	0.0171825
714	0.0219303
726	0.0203477
738	0.0235129
750	0.0202347
762	0.0215912
774	0.0177478
786	0.0124347
798	0.0153738
810	0.0107391
822	0.0155999
834	0.0186521
846	0.0226086
858	0.0200086
870	0.023626
882	0.0256608
894	0.0283738
906	0.0306347
918	0.0239651
930	0.0232869
942	0.0221564
954	0.0232869
966	0.0297303
978	0.0406955
990	0.0360607
1002	0.0417129
1014	0.0690693
1026	0.0862518
1038	0.158712
1050	0.110217
1062	0.0750606
1074	0.0637563
1086	0.0556172
1098	0.0591215
1110	0.0847822
1122	0.135765
1134	0.233434
1146	0.191495
1158	0.240103
1170	0.446181
1182	0.32432
1194	0.254799
1206	0.17273
1218	0.170356
1230	0.187425
1242	0.204834
1254	0.19319
1266	0.108295
1278	0.117565
1290	0.0785649
1302	0.105695
1314	0.126269
1326	0.106034
1338	0.0681649
1350	0.0487215
1362	0.0532433
1374	0.0616084
1386	0.060365
1398	0.0428433
1410	0.0299564
1422	0.028826
1434	0.0362868
1446	0.0799214
1458	0.139608
1470	0.0995909
1482	0.0443129
1494	0.0201217
1506	0.0097217
1518	0.00553911
1530	0.00565215
1542	0.000452172
1554	0.00406955
1566	0.00452172
1578	0.00452172
1590	0.00644345
1602	0.00633041
1614	0.00655649
1626	0.00587824
1638	0.00779997
1650	0.00350433
1662	0.0115304
1674	0.0102869
1686	0.010513
1698	0.0178608
1710	0.0389998
1722	0.0759649
1734	0.187086
1746	0.509937
1758	0.281364
1770	0.0960865
1782	0.0438607
1794	0.0201217
1806	0.0118695
1818	0.0104
1830	0.00712171
1842	0.00576519
1854	0.00712171
1866	0.00452172
1878	0.00486085
1890	0.00486085
1902	0.00474781
1914	0.00429563
1926	0.00553911
1938	0.00519998
1950	0.00519998
1962	0.00508693
1974	0.00553911
1986	0.00440868
1998	0.00452172
2010	0.00508693
2022	0.00452172
2034	0.00553911
2046	0.00497389
2058	0.00531302
2070	0.00508693
2082	0.00497389
2094	0.00373042
2106	0.00440868
2118	0.00293912
2130	0.00418259
2142	0.00373042
2154	0.00384346
2166	0.00339129
2178	0.00271303
2190	0.00271303
2202	0.00327825
2214	0.00259999
2226	0.00248695
2238	0.00248695
2250	0.00271303
2262	0.00282607
2274	0.00259999
2286	0.0023739
2298	0.00271303
2310	0.00169564
2322	0.00113043
2334	0.00135652
2346	0.00248695
2358	0.00101739
2370	0.00339129
2382	0.0023739
2394	0.00214782
2406	0.00146956
2418	0.0015826
2430	0.00180869
2442	0.00113043
2454	0.000904344
2466	0.000565215
2478	0.00101739
2490	0.00180869
2502	0.00146956
2514	0.00169564
2526	0.00192173
2538	0.00203477
2550	0.00192173
2562	0.00259999
2574	0.00282607
2586	0.00373042
2598	0.00406955
2610	0.0039565
2622	0.00474781
2634	0.00531302
2646	0.00666954
2658	0.00949561
2670	0.0120956
2682	0.0109652
2694	0.00949561
2706	0.00870431
2718	0.00757388
2730	0.00802605
2742	0.00915648
2754	0.0101739
2766	0.010513
2778	0.0123217
2790	0.0159391
2802	0.0207999
2814	0.0258868
2826	0.0353825
2838	0.0556172
2850	0.131469
2862	0.396103
2874	0.342633
2886	0.214895
2898	0.201443
2910	0.314712
2922	0.55425
2934	1.03129
2946	1.02338
2958	0.508807
2970	0.378129
2982	0.157356
2994	0.0703127
3006	0.0353825
3018	0.0228347
3030	0.0174086
3042	0.0137912
3054	0.0108521
3066	0.00938257
3078	0.00904344
3090	0.00757388
3102	0.00553911
3114	0.00418259
3126	0.00429563
3138	0.00384346
3150	0.00384346
3162	0.00429563
3174	0.00373042
3186	0.00293912
3198	0.00226086
3210	0.00282607
3222	0.00169564
3234	0.00203477
3246	0.00192173
3258	0.00180869
3270	0.00226086
3282	0.00169564
3294	0.00248695
3306	0.00146956
3318	0.0015826
3330	0.00180869
3342	0.00169564
3354	0.00248695
3366	0.00305216
3378	0.00214782
3390	0.00282607
3402	0.00214782
3414	0.00259999
3426	0.00248695
3438	0.0039565
3450	0.00440868
3462	0.00373042
3474	0.00633041
3486	0.00519998
3498	0.00214782
3510	0.0015826
3522	0.00146956
3534	0.00373042
3546	0.00169564
3558	0.0015826
3570	0.00350433
3582	0.0031652
3594	0.00113043
3606	0.00214782
3618	0.00192173
3630	0.00113043
3642	0.00214782
3654	0.00214782
3666	0.00146956
3678	0.000339129
3690	0.00113043
3702	0.00373042
3714	0.00271303
3726	0.00180869
3738	0
3750	0.00452172
3762	0.00146956
3774	0.00452172
3786	0.00361738
3798	0.00429563
3810	0.00542606
3822	0.00135652
3834	0.00361738
3846	0.00339129
3858	0.00474781
3870	0.00305216
3882	0.00553911
3894	0.0015826
3906	0.00418259
3918	0.00746084
3930	0.00384346
3942	0.0023739
3954	0.00192173
3966	0.00497389
