Infrared Spectrum: 1-Cyclohexen-1-ol, 4-tert-butyl-, hexanoate
Formula: C 16 H 28 O 2
CAS: 70288-98-1
Origin: Sadtler Research Labs Under US-EPA Contract
1/CM	ABSORBANCE
450	0.0151634
462	0.0318721
474	0.0331276
486	0.0191232
498	0.0122659
510	0.0174813
522	0.0156463
534	0.0103343
546	0.0164189
558	0.0125557
570	0.0215378
582	0.0148736
594	0.0444277
606	0.0210549
618	0.0314857
630	0.0262703
642	0.0326447
654	0.0249182
666	0.0397918
678	0.0284917
690	0.027719
702	0.0284917
714	0.0321618
726	0.0333208
738	0.0422063
750	0.0363148
762	0.0309062
774	0.0291678
786	0.0296507
798	0.0338037
810	0.0342866
822	0.0281054
834	0.0322584
846	0.031196
858	0.0339969
870	0.0339969
882	0.0434619
894	0.0578526
906	0.0592048
918	0.0521543
930	0.0540859
942	0.0422063
954	0.0542791
966	0.087793
978	0.0792938
990	0.065386
1002	0.0983205
1014	0.123142
1026	0.234694
1038	0.170081
1050	0.183313
1062	0.0913666
1074	0.0947469
1086	0.117057
1098	0.18959
1110	0.209776
1122	0.122852
1134	0.0944572
1146	0.132993
1158	0.284724
1170	0.590599
1182	0.41878
1194	0.247926
1206	0.222139
1218	0.260578
1230	0.315437
1242	0.366432
1254	0.286462
1266	0.184375
1278	0.151344
1290	0.134828
1302	0.122466
1314	0.122466
1326	0.111166
1338	0.128744
1350	0.13676
1362	0.174427
1374	0.207168
1386	0.0987068
1398	0.100832
1410	0.0477115
1422	0.052444
1434	0.0731126
1446	0.0974512
1458	0.136277
1470	0.116478
1482	0.105081
1494	0.0449106
1506	0.0395986
1518	0.0314857
1530	0.0240489
1542	0.0346729
1554	0.0248216
1566	0.020572
1578	0.0242421
1590	0.0179643
1602	0.0197993
1614	0.0190267
1626	0.0201856
1638	0.0239523
1650	0.0215378
1662	0.0208617
1674	0.0246284
1686	0.0342866
1698	0.0410474
1710	0.0504158
1722	0.0678971
1734	0.160519
1746	0.657434
1758	0.368171
1770	0.0963888
1782	0.0599774
1794	0.0417234
1806	0.0271395
1818	0.0213446
1830	0.0197027
1842	0.0167087
1854	0.0150668
1866	0.0144873
1878	0.0110103
1890	0.0140044
1902	0.011783
1914	0.0115898
1926	0.0114933
1938	0.0115898
1950	0.0113967
1962	0.0104309
1974	0.00975478
1986	0.00985136
1998	0.0100445
2010	0.00936845
2022	0.00927187
2034	0.00994795
2046	0.00985136
2058	0.0102377
2070	0.0104309
2082	0.00878896
2094	0.00772656
2106	0.00772656
2118	0.00888554
2130	0.00869238
2142	0.00801631
2154	0.00656758
2166	0.00743681
2178	0.00618125
2190	0.00647099
2202	0.0069539
2214	0.00618125
2226	0.00637441
2238	0.00676074
2250	0.00666416
2262	0.00734023
2274	0.00647099
2286	0.00666416
2298	0.0069539
2310	0.0058915
2322	0.00627783
2334	0.00801631
2346	0.00849922
2358	0.0113967
2370	0.0123625
2382	0.00550517
2394	0.00560176
2406	0.00453935
2418	0.00560176
2430	0.00434619
2442	0.00299404
2454	0.00386328
2466	0.00251113
2478	0.00318721
2490	0.00395986
2502	0.00318721
2514	0.00222139
2526	0.00473252
2538	0.00309062
2550	0.00463594
2562	0.00434619
2574	0.00521543
2586	0.00627783
2598	0.00531201
2610	0.00666416
2622	0.00743681
2634	0.00869238
2646	0.00936845
2658	0.00791972
2670	0.00994795
2682	0.00985136
2694	0.0112035
2706	0.0107206
2718	0.0128454
2730	0.0130386
2742	0.0148736
2754	0.0140044
2766	0.0134249
2778	0.0136181
2790	0.0157429
2802	0.0185437
2814	0.0245318
2826	0.0324516
2838	0.0523474
2850	0.115126
2862	0.199635
2874	0.361796
2886	0.275935
2898	0.195868
2910	0.248892
2922	0.362376
2934	0.503192
2946	0.736921
2958	0.955196
2970	0.852916
2982	0.382658
2994	0.0969683
3006	0.0487739
3018	0.0307131
3030	0.0222139
3042	0.0161292
3054	0.0131352
3066	0.0104309
3078	0.0112035
3090	0.00936845
3102	0.00772656
3114	0.0085958
3126	0.00820947
3138	0.00734023
3150	0.0096582
3162	0.00888554
3174	0.00647099
3186	0.00685732
3198	0.00714707
3210	0.00782314
3222	0.00550517
3234	0.00550517
3246	0.00453935
3258	0.00289746
3270	0.00511885
3282	0.00173848
3294	0.00241455
3306	0.00444277
3318	0.00328379
3330	0.00415303
3342	0.00347695
3354	0.00328379
3366	0.00222139
3378	0.0037667
3390	0.00251113
3402	0.00453935
3414	0.00521543
3426	0.00299404
3438	0.00231797
3450	0.00511885
3462	0.00367012
3474	0.00985136
3486	0.00598808
3498	0.0037667
3510	0.0037667
3522	0.00241455
3534	0.00183506
3546	0.00511885
3558	0.00260771
3570	0.00647099
3582	0.00618125
3594	0.00511885
3606	0.00540859
3618	0.00647099
3630	0.0103343
3642	0.00463594
3654	0.00772656
3666	0.00531201
3678	0.0128454
3690	0.0107206
3702	0.00898213
3714	0.0101411
3726	0.00820947
3738	0.0155497
3750	0.0177711
3762	0.00840263
3774	0.0108172
3786	0.0100445
3798	0.0111069
3810	0.0128454
3822	0.0160326
3834	0.0158394
3846	0.0124591
3858	0.0164189
3870	0.01526
3882	0.0133283
3894	0.0146805
3906	0.0113967
3918	0.0138112
3930	0.0123625
3942	0.0140044
3954	0
3966	0.00115898
