Infrared Spectrum: Acetic acid, o-ethoxyphenyl-,
Formula: C 10 H 12 O 3
CAS: 70289-12-2
Origin: Sadtler Research Labs Under US-EPA Contract
1/CM	ABSORBANCE
450	0
462	0.000821772
474	0.00445126
486	0.0110254
498	0.0391711
510	0.0329394
522	0.0071905
534	0.00445126
546	0.0210237
558	0.0265706
570	0.084711
582	0.154699
594	0.148467
606	0.14203
618	0.10416
630	0.0911482
642	0.0651939
654	0.04328
666	0.0379385
678	0.0393081
690	0.0456083
702	0.0299947
714	0.0291729
726	0.0248586
738	0.0695082
750	0.180858
762	0.0976539
774	0.0338981
786	0.0332133
798	0.0173942
810	0.0184214
822	0.0189008
834	0.0145865
846	0.0161615
858	0.0349938
870	0.0281457
882	0.0243792
894	0.0301316
906	0.0463616
918	0.0497857
930	0.059373
942	0.0399929
954	0.0220509
966	0.0195856
978	0.0149289
990	0.0181475
1002	0.0273924
1014	0.0460877
1026	0.100119
1038	0.188734
1050	0.217496
1062	0.117993
1074	0.102379
1086	0.15237
1098	0.278649
1110	0.593456
1122	0.631806
1134	0.403011
1146	0.241396
1158	0.157369
1170	0.119294
1182	0.131484
1194	0.123677
1206	0.128607
1218	0.18394
1230	0.362401
1242	0.578391
1254	0.448414
1266	0.183735
1278	0.144906
1290	0.154973
1302	0.150727
1314	0.12306
1326	0.0945723
1338	0.0958734
1350	0.108816
1362	0.13436
1374	0.12306
1386	0.113952
1398	0.120732
1410	0.0771096
1422	0.068618
1434	0.0632764
1446	0.0951201
1458	0.171545
1470	0.10053
1482	0.187912
1494	0.306247
1506	0.191062
1518	0.0606057
1530	0.0267076
1542	0.0212976
1554	0.0240368
1566	0.0305425
1578	0.0658102
1590	0.116007
1602	0.105461
1614	0.0545794
1626	0.0274609
1638	0.0232835
1650	0.0241053
1662	0.0255434
1674	0.0305425
1686	0.0359525
1698	0.0428691
1710	0.0549218
1722	0.0748497
1734	0.110186
1746	0.162574
1758	0.255023
1770	0.45307
1782	0.622972
1794	0.411982
1806	0.192569
1818	0.0858752
1830	0.0439648
1842	0.0267076
1854	0.0173942
1866	0.0135592
1878	0.012532
1890	0.0150658
1902	0.0134223
1914	0.0106146
1926	0.0132168
1938	0.0113678
1950	0.00856013
1962	0.00924493
1974	0.00897101
1986	0.00876557
1998	0.00862861
2010	0.00780683
2022	0.00842316
2034	0.00903949
2046	0.00835468
2058	0.00753291
2070	0.00739595
2082	0.00650569
2094	0.00568392
2106	0.00465671
2118	0.00465671
2130	0.00479367
2142	0.00479367
2154	0.00472519
2166	0.00479367
2178	0.00472519
2190	0.00479367
2202	0.00595785
2214	0.00623177
2226	0.00623177
2238	0.00588937
2250	0.00547848
2262	0.0057524
2274	0.00650569
2286	0.00787531
2298	0.00883405
2310	0.01082
2322	0.0107515
2334	0.00862861
2346	0.0082862
2358	0.00739595
2370	0.00527304
2382	0.00602633
2394	0.00342405
2406	0.00417734
2418	0.0043143
2430	0.00465671
2442	0.00417734
2454	0.00520456
2466	0.00630025
2478	0.00664266
2490	0.00664266
2502	0.00520456
2514	0.00410886
2526	0.00479367
2538	0.00493063
2550	0.00445126
2562	0.00349253
2574	0.00308165
2586	0.00301316
2598	0.00212291
2610	0.00301316
2622	0.00267076
2634	0.00198595
2646	0.00164354
2658	0.00198595
2670	0.00219139
2682	0.00184899
2694	0.00212291
2706	0.00328709
2718	0.00349253
2730	0.00534152
2742	0.00568392
2754	0.00630025
2766	0.00534152
2778	0.00650569
2790	0.00623177
2802	0.00677962
2814	0.00801228
2826	0.0107515
2838	0.0130799
2850	0.017942
2862	0.0256804
2874	0.0404723
2886	0.0668375
2898	0.0751237
2910	0.07574
2922	0.0853958
2934	0.111487
2946	0.118951
2958	0.0816978
2970	0.077589
2982	0.130114
2994	0.143605
3006	0.059373
3018	0.0401299
3030	0.0587567
3042	0.0675907
3054	0.0521825
3066	0.0605372
3078	0.0819033
3090	0.0573871
3102	0.0245847
3114	0.0169833
3126	0.00897101
3138	0.00595785
3150	0.00486215
3162	0.00534152
3174	0.00527304
3186	0.00383494
3198	0.00376645
3210	0.00376645
3222	0.0043143
3234	0.00376645
3246	0.00356101
3258	0.00362949
3270	0.00404038
3282	0.00383494
3294	0.00362949
3306	0.00451975
3318	0.00451975
3330	0.00417734
3342	0.00486215
3354	0.00493063
3366	0.00534152
3378	0.00513607
3390	0.00541
3402	0.00499911
3414	0.00445126
3426	0.00568392
3438	0.00493063
3450	0.00582088
3462	0.00568392
3474	0.00438278
3486	0.00499911
3498	0.00520456
3510	0.00561544
3522	0.00801228
3534	0.0117103
3546	0.0202704
3558	0.0376645
3570	0.171134
3582	0.216879
3594	0.0367058
3606	0.0132168
3618	0.00787531
3630	0.00657418
3642	0.00404038
3654	0.00630025
3666	0.00212291
3678	0.00588937
3690	0.00493063
3702	0.00472519
3714	0.00568392
3726	0.00766987
3738	0.00842316
3750	0.00609481
3762	0.0043143
3774	0.00246532
3786	0.00362949
3798	0.00671114
3810	0.00493063
3822	0.00527304
3834	0.00616329
3846	0.00349253
3858	0.00671114
3870	0.00643721
3882	0.00568392
3894	0.00308165
3906	0.00650569
3918	0.00499911
3930	0.00362949
3942	0.00458823
3954	0.00308165
3966	0.00376645
