Infrared Spectrum: Succinimide, N-(m-chloroanilinomethyl)-,
Formula: C 11 H 11 Cl N 2 O 2
CAS: 70289-21-3
Origin: Sadtler Research Labs Under US-EPA Contract
1/CM	ABSORBANCE
450	0
462	0.0471573
474	0.0516546
486	0.0492132
498	0.0430455
510	0.0585933
522	0.0628336
534	0.0512691
546	0.0787668
558	0.0629621
570	0.0458724
582	0.0516546
594	0.0760684
606	0.0995829
618	0.119756
630	0.15959
642	0.236686
654	0.248379
666	0.217283
678	0.173852
690	0.121812
702	0.0955995
714	0.075683
726	0.0621911
738	0.063733
750	0.0714427
762	0.109862
774	0.0998398
786	0.0773534
798	0.0591072
810	0.0567943
822	0.0609062
834	0.0732416
846	0.102667
858	0.114874
870	0.117058
882	0.149053
894	0.153165
906	0.0796663
918	0.0531965
930	0.043688
942	0.0390622
954	0.0364923
966	0.0390622
978	0.0399616
990	0.0506266
1002	0.0481852
1014	0.0368778
1026	0.0385482
1038	0.0399616
1050	0.043688
1062	0.0539675
1074	0.0895603
1086	0.0893033
1098	0.0790238
1110	0.0822362
1122	0.143142
1134	0.243625
1146	0.402315
1158	0.365051
1170	0.219468
1182	0.0948286
1194	0.0913592
1206	0.0899458
1218	0.102538
1230	0.102667
1242	0.103823
1254	0.103952
1266	0.111147
1278	0.128109
1290	0.156634
1302	0.150338
1314	0.165629
1326	0.268167
1338	0.310185
1350	0.209574
1362	0.0982979
1374	0.0615486
1386	0.0477998
1398	0.0512691
1410	0.0531965
1422	0.0584648
1434	0.073884
1446	0.0777389
1458	0.0869904
1470	0.103566
1482	0.138388
1494	0.105237
1506	0.0570513
1518	0.0477998
1530	0.0484422
1542	0.0461293
1554	0.0513976
1566	0.0785098
1578	0.126567
1590	0.206875
1602	0.200194
1614	0.154964
1626	0.14931
1638	0.100097
1650	0.0583363
1662	0.0471573
1674	0.0526825
1686	0.0681018
1698	0.122069
1710	0.20816
1722	0.252234
1734	0.292581
1746	0.434695
1758	0.787411
1770	1.25654
1782	1.13075
1794	0.683845
1806	0.180791
1818	0.139159
1830	0.101639
1842	0.0526825
1854	0.0310955
1866	0.0260843
1878	0.0253133
1890	0.0255703
1902	0.0249278
1914	0.0246708
1926	0.0245424
1938	0.0235144
1950	0.0226149
1962	0.0201736
1974	0.0179892
1986	0.0168327
1998	0.0151623
2010	0.0145198
2022	0.0138774
2034	0.0140058
2046	0.0136204
2058	0.0150338
2070	0.0164472
2082	0.0141343
2094	0.0123354
2106	0.0118214
2118	0.0124639
2130	0.0122069
2142	0.0129779
2154	0.0136204
2166	0.0137489
2178	0.0134919
2190	0.0127209
2202	0.0125924
2214	0.0129779
2226	0.0119499
2238	0.0132349
2250	0.0131064
2262	0.0149053
2274	0.0176037
2286	0.0154193
2298	0.0149053
2310	0.0159333
2322	0.0158048
2334	0.0136204
2346	0.0156763
2358	0.0149053
2370	0.0164472
2382	0.0150338
2394	0.011693
2406	0.0113075
2418	0.010922
2430	0.0107935
2442	0.0110505
2454	0.0107935
2466	0.0110505
2478	0.0115645
2490	0.010922
2502	0.00938006
2514	0.00809512
2526	0.00822362
2538	0.00719566
2550	0.00796663
2562	0.00822362
2574	0.0084806
2586	0.00796663
2598	0.00809512
2610	0.0086091
2622	0.00912307
2634	0.00783813
2646	0.00912307
2658	0.00835211
2670	0.00938006
2682	0.00809512
2694	0.00706717
2706	0.00578223
2718	0.0064247
2730	0.00706717
2742	0.00732416
2754	0.00693868
2766	0.00629621
2778	0.0064247
2790	0.00706717
2802	0.00783813
2814	0.00770964
2826	0.00963705
2838	0.0100225
2850	0.0124639
2862	0.0132349
2874	0.0155478
2886	0.0203021
2898	0.0181177
2910	0.0159333
2922	0.0140058
2934	0.0151623
2946	0.0264698
2958	0.0344364
2970	0.032252
2982	0.0195311
2994	0.0233859
3006	0.0176037
3018	0.0244139
3030	0.0366208
3042	0.0309671
3054	0.0246708
3066	0.0296821
3078	0.0280117
3090	0.0259558
3102	0.0181177
3114	0.0142628
3126	0.00950856
3138	0.00822362
3150	0.00938006
3162	0.00835211
3174	0.00796663
3186	0.00693868
3198	0.00693868
3210	0.00591072
3222	0.00886609
3234	0.00745265
3246	0.00989404
3258	0.00668169
3270	0.0084806
3282	0.010151
3294	0.00732416
3306	0.0102795
3318	0.00976554
3330	0.0084806
3342	0.00873759
3354	0.00681018
3366	0.00938006
3378	0.011179
3390	0.0138774
3402	0.0185031
3414	0.0249278
3426	0.0388052
3438	0.0664314
3450	0.108706
3462	0.0990689
3474	0.0832641
3486	0.0305816
3498	0.022101
3510	0.0177322
3522	0.0190171
3534	0.0185031
3546	0.0164472
3558	0.0178607
3570	0.0163187
3582	0.0168327
3594	0.0118214
3606	0.00745265
3618	0.00796663
3630	0.00835211
3642	0.0136204
3654	0.00758115
3666	0.0124639
3678	0.00770964
3690	0.00835211
3702	0.00886609
3714	0.00912307
3726	0.0102795
3738	0.0110505
3750	0.00668169
3762	0.0100225
3774	0.00925157
3786	0.00693868
3798	0.0110505
3810	0.00822362
3822	0.00526825
3834	0.011179
3846	0.00668169
3858	0.0084806
3870	0.0161902
3882	0.00526825
3894	0.0140058
3906	0.0169612
3918	0.0119499
3930	0.0118214
3942	0.00835211
3954	0.00488277
3966	0.00488277
