Infrared Spectrum: Ethylamine, 2-(o-chlorophenoxy)-N-methyl-,
Formula: C 9 H 12 Cl N O
CAS: 70289-29-1
Origin: Sadtler Research Labs Under US-EPA Contract
1/CM	ABSORBANCE
450	0.0313507
462	0.0319614
474	0.00753231
486	0.0207648
498	0.0601567
510	0.0114003
522	0.0200522
534	0.0228005
546	0.0228005
558	0.0162861
570	0.0231059
582	0.0209683
594	0.0354222
606	0.0364401
618	0.0329793
630	0.0338954
642	0.0407152
654	0.0585281
666	0.084993
678	0.160113
690	0.207851
702	0.183626
714	0.168968
726	0.200522
738	0.410104
750	0.544973
762	0.222
774	0.0898788
786	0.0642282
798	0.066264
810	0.0526244
822	0.0424456
834	0.037458
846	0.0337936
858	0.0293149
870	0.0277881
882	0.0516065
894	0.0690123
906	0.0818376
918	0.0880466
930	0.0788857
942	0.04611
954	0.0319614
966	0.037458
978	0.0484511
990	0.0659586
1002	0.116954
1014	0.222916
1026	0.350253
1038	0.5351
1050	0.375801
1062	0.517897
1074	0.368371
1086	0.115122
1098	0.0737963
1110	0.0815322
1122	0.164388
1134	0.230041
1146	0.1651
1158	0.155125
1170	0.102704
1182	0.0874359
1194	0.0911003
1206	0.107183
1218	0.180368
1230	0.427408
1242	0.781325
1254	0.706103
1266	0.589251
1278	0.628134
1290	0.481152
1302	0.275744
1314	0.10189
1326	0.0640247
1338	0.0598513
1350	0.0675872
1362	0.0848912
1374	0.0815322
1386	0.0899806
1398	0.0658568
1410	0.0517083
1422	0.0650425
1434	0.124792
1446	0.355545
1458	0.441047
1470	0.618362
1482	1.01788
1494	0.540189
1506	0.190852
1518	0.0754249
1530	0.0326739
1542	0.0287042
1554	0.0381705
1566	0.0762392
1578	0.201438
1590	0.357887
1602	0.143419
1614	0.0359312
1626	0.0200522
1638	0.0109931
1650	0.0108913
1662	0.0144539
1674	0.0211719
1686	0.023513
1698	0.0339972
1710	0.0580192
1722	0.0391884
1734	0.0212737
1746	0.017304
1758	0.0178129
1770	0.016795
1782	0.0133342
1794	0.0125199
1806	0.0117056
1818	0.0093645
1830	0.00905913
1842	0.0106877
1854	0.0093645
1866	0.00997522
1878	0.0126217
1890	0.0193397
1902	0.0124181
1914	0.012011
1926	0.0182201
1938	0.0109931
1950	0.00519119
1962	0.00366437
1974	0.00295185
1986	0.00264649
1998	0.00417331
2010	0.00468225
2022	0.00661622
2034	0.00855019
2046	0.0104842
2058	0.0107895
2070	0.0111967
2082	0.0101788
2094	0.00814304
2106	0.00600549
2118	0.00447867
2130	0.00366437
2142	0.00264649
2154	0.0025447
2166	0.00223934
2178	0.00183218
2190	0.00152682
2202	0.00050894
2214	0.000101788
2226	0.000814304
2238	0.00193397
2250	0.0025447
2262	0.00376616
2274	0.00570013
2286	0.00732874
2298	0.00916092
2310	0.0110949
2322	0.00885556
2334	0.00559834
2346	0.00529298
2358	0.00661622
2370	0.0050894
2382	0.00783768
2394	0.00458046
2406	0.00407152
2418	0.00386794
2430	0.00437688
2442	0.00437688
2454	0.00478404
2466	0.00600549
2478	0.00804125
2490	0.00875377
2502	0.0101788
2514	0.0109931
2526	0.0140467
2538	0.0174057
2550	0.0172022
2562	0.0147593
2574	0.0125199
2586	0.0093645
2598	0.00804125
2610	0.00783768
2622	0.00824483
2634	0.00875377
2646	0.00885556
2658	0.00956807
2670	0.0122146
2682	0.0165914
2694	0.0250398
2706	0.0296203
2718	0.0291114
2730	0.0319614
2742	0.036949
2754	0.0457028
2766	0.0620907
2778	0.0953754
2790	0.149628
2802	0.259763
2814	0.232586
2826	0.18556
2838	0.196451
2850	0.222101
2862	0.239813
2874	0.232484
2886	0.260679
2898	0.277576
2910	0.256506
2922	0.278696
2934	0.349642
2946	0.406643
2958	0.33987
2970	0.260679
2982	0.230346
2994	0.10932
3006	0.055678
3018	0.0479421
3030	0.0552709
3042	0.0535405
3054	0.0541512
3066	0.0961897
3078	0.174159
3090	0.0963932
3102	0.0464153
3114	0.0180165
3126	0.00885556
3138	0.00732874
3150	0.00641264
3162	0.00631086
3174	0.00539476
3186	0.00386794
3198	0.00274828
3210	0.0025447
3222	0.00285006
3234	0.00183218
3246	0.00132324
3258	0.00101788
3270	0.00162861
3282	0.00122146
3294	0.00183218
3306	0.00152682
3318	0.000814304
3330	0.00203576
3342	0.003359
3354	0.00712516
3366	0.0190344
3378	0.0138432
3390	0.00783768
3402	0.00549655
3414	0.00386794
3426	0.00356258
3438	0.00193397
3450	0.00203576
3462	0.00264649
3474	0.00122146
3486	0.00285006
3498	0.00152682
3510	0.00183218
3522	0.0017304
3534	0.000814304
3546	0.00519119
3558	0.00478404
3570	0.024022
3582	0.0271774
3594	0.013945
3606	0.00447867
3618	0.00315543
3630	0.00498761
3642	0.00732874
3654	0.00732874
3666	0.00631086
3678	0
3690	0.00346079
3702	0.00580192
3714	0.00386794
3726	0.00610728
3738	0.00376616
3750	0.00376616
3762	0.00376616
3774	0.00396973
3786	0.00498761
3798	0.00529298
3810	0.00549655
3822	0.000916092
3834	0.003359
3846	0.00600549
3858	0.00437688
3870	0.00213755
3882	0.00661622
3894	0.00458046
3906	0.00366437
3918	0.00977165
3930	0.00824483
3942	0.00498761
3954	0.00570013
3966	0.00641264
