Infrared Spectrum: Succinimide, N-(3-quinolylaminomethyl)-,
Formula: C 14 H 13 N 3 O 2
CAS: 70289-23-5
Origin: Sadtler Research Labs Under US-EPA Contract
1/CM	ABSORBANCE
450	0.0573055
462	0.0237638
474	0.0347794
486	0.0143573
498	0.0143573
510	0.0108918
522	0.0211647
534	0.0361408
546	0.0335417
558	0.0325515
570	0.0195557
582	0.029581
594	0.0512408
606	0.0915898
618	0.101615
630	0.133424
642	0.20682
654	0.215855
666	0.150876
678	0.0934463
690	0.0605235
702	0.0373785
714	0.0373785
726	0.0424531
738	0.0518596
750	0.130206
762	0.0545826
774	0.0427006
786	0.0375023
798	0.0179466
810	0.0191843
822	0.0290859
834	0.0331704
846	0.0457949
858	0.0326753
870	0.0496318
882	0.0753759
894	0.0736431
906	0.0516121
918	0.0269819
930	0.0206696
942	0.0146049
954	0.0152237
966	0.0157188
978	0.0216597
990	0.0149762
1002	0.00903521
1014	0.0147286
1026	0.00569342
1038	0.00358933
1050	0.00507457
1062	0.0103967
1074	0.0196794
1086	0.0233925
1098	0.0290859
1110	0.0445572
1122	0.114487
1134	0.224643
1146	0.373414
1158	0.325886
1170	0.187759
1182	0.09258
1194	0.0769849
1206	0.0857726
1218	0.125255
1230	0.0991398
1242	0.0648555
1254	0.0538399
1266	0.0612661
1278	0.128226
1290	0.156074
1302	0.112507
1314	0.133795
1326	0.250882
1338	0.317965
1350	0.237143
1362	0.104957
1374	0.0652268
1386	0.0502506
1398	0.0310663
1410	0.0243827
1422	0.0397302
1434	0.0886193
1446	0.057058
1458	0.0461662
1470	0.0425769
1482	0.0449285
1494	0.0565629
1506	0.0455474
1518	0.0316851
1530	0.0190606
1542	0.024754
1554	0.0267343
1566	0.0314376
1578	0.0358933
1590	0.04629
1602	0.0714153
1614	0.091466
1626	0.113002
1638	0.0814407
1650	0.040349
1662	0.0206696
1674	0.024754
1686	0.04629
1698	0.106442
1710	0.190853
1722	0.217959
1734	0.250263
1746	0.397549
1758	0.752769
1770	1.20874
1782	1.08979
1794	0.648555
1806	0.161767
1818	0.123646
1830	0.0854013
1842	0.0352744
1854	0.0147286
1866	0.0108918
1878	0.0105204
1890	0.0106442
1902	0.010768
1914	0.010768
1926	0.00977783
1938	0.012377
1950	0.0122532
1962	0.00730243
1974	0.00544588
1986	0.00457949
1998	0.00346556
2010	0.00334179
2022	0.0024754
2034	0.00235163
2046	0.00284671
2058	0.00321802
2070	0.00346556
2082	0.00185655
2094	0.00173278
2106	0.00111393
2118	0.00198032
2130	0.00185655
2142	0.0024754
2154	0.00210409
2166	0.00297048
2178	0.00198032
2190	0.00198032
2202	0.00284671
2214	0.00235163
2226	0.00309425
2238	0.00358933
2250	0.00309425
2262	0.00309425
2274	0.00297048
2286	0.00358933
2298	0.00433195
2310	0.0037131
2322	0.00309425
2334	0.00297048
2346	0.00358933
2358	0.00321802
2370	0.00334179
2382	0.00420818
2394	0.0024754
2406	0.00235163
2418	0.00210409
2430	0.00210409
2442	0.00259917
2454	0.00259917
2466	0.00309425
2478	0.00358933
2490	0.00272294
2502	0.00173278
2514	0.00111393
2526	0.00012377
2538	0.00024754
2550	0.00061885
2562	0.00173278
2574	0.00198032
2586	0.00185655
2598	0.00222786
2610	0.00272294
2622	0.00346556
2634	0.00272294
2646	0.00284671
2658	0.00334179
2670	0.00334179
2682	0.00297048
2694	0.00198032
2706	0.00173278
2718	0.00160901
2730	0.00210409
2742	0.00297048
2754	0.00297048
2766	0.00284671
2778	0.00297048
2790	0.00284671
2802	0.00383687
2814	0.00507457
2826	0.00532211
2838	0.00779751
2850	0.00804505
2862	0.00829259
2874	0.00767374
2886	0.00829259
2898	0.00829259
2910	0.00841636
2922	0.0100254
2934	0.0143573
2946	0.0274769
2958	0.0342843
2970	0.0350269
2982	0.0290859
2994	0.0483941
3006	0.0492605
3018	0.0398539
3030	0.0388638
3042	0.0377498
3054	0.0396064
3066	0.0470326
3078	0.0433195
3090	0.0292097
3102	0.0144811
3114	0.00730243
3126	0.0074262
3138	0.00680735
3150	0.0061885
3162	0.00594096
3174	0.00643604
3186	0.0061885
3198	0.00767374
3210	0.00767374
3222	0.00717866
3234	0.00903521
3246	0.00792128
3258	0.00680735
3270	0.00705489
3282	0.00717866
3294	0.00792128
3306	0.00829259
3318	0.00779751
3330	0.00792128
3342	0.0086639
3354	0.0103967
3366	0.0108918
3378	0.0121295
3390	0.0137385
3402	0.021536
3414	0.0261155
3426	0.0313138
3438	0.054335
3450	0.0997586
3462	0.0918373
3474	0.0757472
3486	0.027972
3498	0.0142335
3510	0.0106442
3522	0.00928275
3534	0.00940652
3546	0.0112631
3558	0.0115106
3570	0.0106442
3582	0.00792128
3594	0.00631227
3606	0.00284671
3618	0.00334179
3630	0.00284671
3642	0.00185655
3654	0.00309425
3666	0
3678	0.00594096
3690	0.00222786
3702	0.00222786
3714	0.00284671
3726	0.00210409
3738	0.00655981
3750	0.00284671
3762	0.00433195
3774	0.00358933
3786	0.00222786
3798	0.00334179
3810	0.0012377
3822	0.00445572
3834	0.00334179
3846	0.00198032
3858	0.00680735
3870	0.00507457
3882	0.00309425
3894	0.00470326
3906	0.0024754
3918	0.00222786
3930	0.0061885
3942	0.00160901
3954	0.00532211
3966	0.00198032
