Infrared Spectrum: Valeric acid, 3-benzyl-2-cyano-3-methyl-, ethyl ester
Formula: C 16 H 21 N O 2
CAS: 70289-04-2
Origin: Sadtler Research Labs Under US-EPA Contract
1/CM	ABSORBANCE
450	0.0584252
462	0.0417605
474	0.0012819
486	0.0363864
498	0.0283005
510	0.0288921
522	0.00300754
534	0.043634
546	0.0354496
558	0.0258846
570	0.0243562
582	0.013953
594	0.0152349
606	0.0142982
618	0.0182918
630	0.0144954
642	0.012819
654	0.0110441
666	0.0171085
678	0.0250957
690	0.0447187
702	0.178974
714	0.0705047
726	0.0558614
738	0.0620737
750	0.0751886
762	0.0521636
774	0.0409716
786	0.0354496
798	0.0330337
810	0.0277088
822	0.024159
834	0.0222361
846	0.0304699
858	0.0389995
870	0.0432889
882	0.020116
894	0.0187355
906	0.0168127
918	0.0148405
930	0.0198202
942	0.0176015
954	0.0184397
966	0.0245041
978	0.0244548
990	0.0404293
1002	0.0590169
1014	0.0972275
1026	0.171381
1038	0.218022
1050	0.128683
1062	0.0867257
1074	0.0765198
1086	0.0672507
1098	0.093086
1110	0.104179
1122	0.107286
1134	0.129127
1146	0.189377
1158	0.230052
1170	0.281674
1182	0.294098
1194	0.240899
1206	0.190067
1218	0.249478
1230	0.318997
1242	0.313869
1254	0.195688
1266	0.137312
1278	0.110589
1290	0.112167
1302	0.121041
1314	0.134994
1326	0.1169
1338	0.0610877
1350	0.0397883
1362	0.0398376
1374	0.0750407
1386	0.0787385
1398	0.0715894
1410	0.034217
1422	0.0301247
1434	0.0341184
1446	0.061137
1458	0.106398
1470	0.118971
1482	0.0606439
1494	0.0653278
1506	0.0385557
1518	0.00946637
1530	0.00512762
1542	0.00345128
1554	0.00473318
1566	0.00566996
1578	0.0106004
1590	0.0149391
1602	0.0334281
1614	0.0194258
1626	0.0112906
1638	0.00892402
1650	0.00818446
1662	0.00256381
1674	0.00266242
1686	0.00152842
1698	0.00882542
1710	0.0254902
1722	0.0476277
1734	0.0935297
1746	0.296711
1758	0.49304
1770	0.256134
1782	0.0769635
1794	0.0349072
1806	0.0239124
1818	0.015728
1830	0.0114878
1842	0.00892402
1854	0.00843098
1866	0.00902263
1878	0.0103538
1890	0.0104524
1902	0.0086775
1914	0.00650813
1926	0.00576857
1938	0.00902263
1950	0.0110441
1962	0.00882542
1974	0.00448666
1986	0.00468388
1998	0.0037471
2010	0.00414154
2022	0.00448666
2034	0.00517692
2046	0.00453597
2058	0.00458527
2070	0.00448666
2082	0.00478249
2094	0.0048811
2106	0.00389502
2118	0.00359919
2130	0.0036978
2142	0.00281033
2154	0.00236659
2166	0.00212007
2178	0.00177494
2190	0.00182425
2202	0.00167634
2214	0.00207077
2226	0.00142982
2238	0.00285963
2250	0.00596578
2262	0.00379641
2274	0.0036978
2286	0.00557135
2298	0.00956498
2310	0.0127204
2322	0.010699
2334	0.00650813
2346	0.0112413
2358	0.00774073
2370	0.00759282
2382	0.00848029
2394	0.00197216
2406	0.00157773
2418	0.00182425
2430	0.00138051
2442	0.00162703
2454	0.00157773
2466	0.00133121
2478	0.00138051
2490	0.00133121
2502	0.00147912
2514	0.00187355
2526	0.00138051
2538	0.00133121
2550	0.00103538
2562	0.00182425
2574	0.00182425
2586	0.00216938
2598	0.00207077
2610	0.00276102
2622	0.00305685
2634	0.0036978
2646	0.0036978
2658	0.00379641
2670	0.00335267
2682	0.00419084
2694	0.00438806
2706	0.00468388
2718	0.00473318
2730	0.00557135
2742	0.00675465
2754	0.00897333
2766	0.00951567
2778	0.0104031
2790	0.0120302
2802	0.0124739
2814	0.0141502
2826	0.0171085
2838	0.0211021
2850	0.0268214
2862	0.0414154
2874	0.0610877
2886	0.0850987
2898	0.101369
2910	0.0938255
2922	0.114089
2934	0.150377
2946	0.207175
2958	0.164084
2970	0.187996
2982	0.303368
2994	0.206485
3006	0.102158
3018	0.0631091
3030	0.0802669
3042	0.0946637
3054	0.0438806
3066	0.0728713
3078	0.085148
3090	0.0567489
3102	0.0325899
3114	0.0238631
3126	0.0141996
3138	0.00912124
3150	0.00729699
3162	0.00719838
3174	0.0061137
3186	0.00473318
3198	0.00340198
3210	0.00419084
3222	0.0048811
3234	0.00453597
3246	0.00424014
3258	0.00433875
3270	0.00483179
3282	0.0036485
3294	0.00295824
3306	0.00350058
3318	0.0024652
3330	0.0024159
3342	0.00212007
3354	0.00256381
3366	0.00300754
3378	0.00172564
3390	0.00197216
3402	0.00266242
3414	0.00172564
3426	0.0024652
3438	0.00202146
3450	0.00261311
3462	0.00266242
3474	0.00305685
3486	0.00443736
3498	0.00404293
3510	0.00414154
3522	0.00138051
3534	0.00162703
3546	0.00073956
3558	0.00192286
3570	0.000690256
3582	0.00261311
3594	0.00197216
3606	0.000936776
3618	0.00226798
3630	0.00202146
3642	0.00315546
3654	0.00340198
3666	0.00448666
3678	0.00453597
3690	0.00428945
3702	0.00345128
3714	0.00295824
3726	0.00108469
3738	0.00236659
3750	0.00192286
3762	0.00177494
3774	0.00113399
3786	0.00103538
3798	0.00197216
3810	0.00325406
3822	0.00103538
3834	0.000690256
3846	0.00113399
3858	0.000542344
3870	0.000788864
3882	0.00167634
3894	0.00350058
3906	0.0025145
3918	0.0036485
3930	0.00276102
3942	0.00345128
3954	0.000788864
3966	0.00216938
