Infrared Spectrum: Aniline, 5-tert-pentyl-2-phenoxy-,
Formula: C 17 H 21 N O
CAS: 70289-36-0
Origin: Sadtler Research Labs Under US-EPA Contract
1/CM	ABSORBANCE
450	0.0143478
462	0.0240326
474	0.0223587
486	0.00968476
498	0.0125543
510	0.00430434
522	0.00155434
534	0.0125543
546	0.0333586
558	0.0563151
570	0.0286956
582	0.00824998
594	0.00251087
606	0.00549999
618	0.0105217
630	0.0133913
642	0.0205652
654	0.0198478
666	0.0269021
678	0.0264239
690	0.0252282
702	0.0263043
714	0.0341956
726	0.0890759
738	0.285641
750	0.158304
762	0.0546412
774	0.0707825
786	0.0669564
798	0.0466304
810	0.0508151
822	0.0809455
834	0.146826
846	0.0795107
858	0.0318043
870	0.0388586
882	0.15125
894	0.0475869
906	0.0107609
918	0.0143478
930	0.0142282
942	0.00406521
954	0.00263043
966	0.0023913
978	0.00526086
990	0.00872824
1002	0.0302499
1014	0.123032
1026	0.0332391
1038	0.0327608
1050	0.026663
1062	0.0241521
1074	0.0167391
1086	0.0163804
1098	0.0350325
1110	0.0506956
1122	0.0449564
1134	0.0781955
1146	0.0833368
1158	0.110717
1170	0.202902
1182	0.175761
1194	0.473477
1206	0.339565
1218	0.628792
1230	1.18357
1242	0.526564
1254	0.242717
1266	0.33538
1278	0.327967
1290	0.230043
1302	0.198717
1314	0.14025
1326	0.0957716
1338	0.046989
1350	0.0332391
1362	0.0509347
1374	0.0644455
1386	0.0795107
1398	0.0511738
1410	0.0329999
1422	0.0278586
1434	0.0257065
1446	0.0561955
1458	0.145989
1470	0.169902
1482	0.273326
1494	0.666097
1506	1.19565
1518	0.383923
1530	0.0821412
1542	0.0424456
1554	0.0465108
1566	0.0645651
1578	0.115858
1590	0.227413
1602	0.197641
1614	0.260532
1626	0.281576
1638	0.126739
1650	0.0527282
1662	0.0300108
1674	0.0157826
1686	0.0130326
1698	0.00944563
1710	0.00669564
1722	0.00753259
1734	0.00573912
1746	0.00980433
1758	0.0168587
1770	0.0120761
1782	0.00621738
1794	0.00358695
1806	0.00454347
1818	0.00394565
1830	0.00274999
1842	0.00502173
1854	0.00944563
1866	0.0136304
1878	0.0236739
1890	0.01925
1902	0.0147065
1914	0.0136304
1926	0.00645651
1938	0.00609781
1950	0.0068152
1962	0.00753259
1974	0.00741303
1986	0.00789129
1998	0.00813042
2010	0.00884781
2022	0.00753259
2034	0.00896737
2046	0.011
2058	0.0108804
2070	0.00932607
2082	0.00860868
2094	0.00609781
2106	0.00466304
2118	0.00370652
2130	0.00322825
2142	0.00191304
2154	0.00263043
2166	0.00310869
2178	0.00179347
2190	0.00143478
2202	0.00274999
2214	0.00119565
2226	0.00107609
2238	0.00167391
2250	0.00179347
2262	0.00394565
2274	0.00466304
2286	0.00538043
2298	0.0047826
2310	0.00585868
2322	0.00585868
2334	0.00705434
2346	0.00549999
2358	0.00872824
2370	0.00597825
2382	0.0095652
2394	0.0136304
2406	0.0112391
2418	0.00753259
2430	0.00729346
2442	0.00813042
2454	0.00777173
2466	0.00824998
2478	0.00633695
2490	0.00609781
2502	0.0047826
2514	0.00502173
2526	0.00454347
2538	0.0044239
2550	0.00394565
2562	0.00430434
2574	0.00394565
2586	0.00406521
2598	0.00466304
2610	0.00633695
2622	0.00693477
2634	0.00526086
2646	0.00502173
2658	0.00502173
2670	0.00394565
2682	0.00346738
2694	0.00406521
2706	0.00502173
2718	0.00585868
2730	0.0071739
2742	0.00777173
2754	0.00729346
2766	0.00777173
2778	0.00836955
2790	0.00884781
2802	0.00980433
2814	0.0115978
2826	0.0145869
2838	0.0202065
2850	0.0324021
2862	0.0728151
2874	0.126022
2886	0.154
2898	0.146706
2910	0.157706
2922	0.234108
2934	0.222869
2946	0.234945
2958	0.297478
2970	0.567575
2982	0.38476
2994	0.108445
3006	0.048663
3018	0.045076
3030	0.0826194
3042	0.142521
3054	0.10725
3066	0.103782
3078	0.107848
3090	0.0789129
3102	0.0539238
3114	0.0274999
3126	0.0154239
3138	0.0105217
3150	0.00848912
3162	0.00789129
3174	0.00801085
3186	0.00896737
3198	0.00908694
3210	0.00777173
3222	0.00729346
3234	0.00538043
3246	0.00394565
3258	0.00322825
3270	0.00322825
3282	0.00191304
3294	0.00167391
3306	0.0023913
3318	0.00215217
3330	0.00227173
3342	0.00215217
3354	0.0023913
3366	0.00382608
3378	0.00633695
3390	0.0143478
3402	0.0382608
3414	0.0628912
3426	0.0199674
3438	0.00884781
3450	0.00753259
3462	0.00872824
3474	0.0166195
3486	0.0344347
3498	0.0703042
3510	0.060739
3522	0.0176956
3534	0.00765216
3546	0.00394565
3558	0.00298913
3570	0.00286956
3582	0.00215217
3594	0.00322825
3606	0.000597825
3618	0.0023913
3630	0.00322825
3642	0.00179347
3654	0.00561956
3666	0
3678	0.00514129
3690	0.00406521
3702	0.00298913
3714	0.00227173
3726	0.00263043
3738	0.0044239
3750	0.00346738
3762	0.00274999
3774	0.00227173
3786	0.00298913
3798	0.00274999
3810	0.00274999
3822	0.00466304
3834	0.0044239
3846	0.00023913
3858	0.00382608
3870	0.00597825
3882	0.00298913
3894	0.00633695
3906	0.0068152
3918	0.0071739
3930	0.0044239
3942	0.00621738
3954	0.00454347
3966	0.00633695
