Infrared Spectrum: Acetamide, N-(2-chloro-6-methylphenyl)-, 2-N,N-dimethyl-,
Formula: C 11 H 15 Cl N 2 O
CAS: 70289-10-0
Origin: Sadtler Research Labs Under US-EPA Contract
1/CM	ABSORBANCE
450	0
462	0.0224106
474	0.0247696
486	0.0167096
498	0.0372527
510	0.0239341
522	0.0408403
534	0.0230003
546	0.0248187
558	0.0211328
570	0.0247204
582	0.0364663
594	0.0429045
606	0.0221648
618	0.0195601
630	0.0192161
642	0.0194127
654	0.0167588
666	0.0183806
678	0.0139575
690	0.0265388
702	0.0308637
714	0.0191669
726	0.0232461
738	0.0284064
750	0.0220666
762	0.0853666
774	0.0929351
786	0.0181349
798	0.0179383
810	0.0172994
822	0.0231969
834	0.0320432
846	0.0385796
858	0.0498832
870	0.042069
882	0.0337142
894	0.0256051
906	0.0156284
918	0.0128763
930	0.015481
942	0.022558
954	0.0291927
966	0.0320923
978	0.0358766
990	0.0245239
1002	0.0271286
1014	0.0202482
1026	0.0325347
1038	0.0762746
1050	0.107974
1062	0.0457058
1074	0.0402014
1086	0.0443297
1098	0.0372035
1110	0.0277183
1122	0.0300282
1134	0.0441331
1146	0.0728344
1158	0.0584346
1170	0.0626611
1182	0.0520456
1194	0.0358766
1206	0.0449194
1218	0.0441823
1230	0.0478191
1242	0.0358766
1254	0.0445754
1266	0.0862512
1278	0.0934757
1290	0.0665928
1302	0.0445263
1314	0.0359749
1326	0.0339599
1338	0.0438874
1350	0.028603
1362	0.0278658
1374	0.0307163
1386	0.036024
1398	0.0423147
1410	0.0647744
1422	0.122324
1434	0.110578
1446	0.146209
1458	0.232608
1470	0.336454
1482	0.473866
1494	0.426538
1506	0.205479
1518	0.112741
1530	0.0714091
1542	0.0609902
1554	0.0547978
1566	0.0494409
1578	0.0472785
1590	0.0384322
1602	0.0346479
1614	0.0214277
1626	0.0212311
1638	0.0234918
1650	0.0303722
1662	0.0227055
1674	0.0275218
1686	0.0408403
1698	0.0579431
1710	0.114166
1722	0.304509
1734	0.316107
1746	0.104484
1758	0.0472293
1770	0.0305197
1782	0.0232461
1794	0.0203464
1806	0.0189704
1818	0.0167588
1830	0.0155793
1842	0.0152844
1854	0.0145472
1866	0.0137117
1878	0.0119425
1890	0.0125814
1902	0.011795
1914	0.0147929
1926	0.0148912
1938	0.0109104
1950	0.00987835
1962	0.00938689
1974	0.00992749
1986	0.00973091
1998	0.00987835
2010	0.00978005
2022	0.0098292
2034	0.00997664
2046	0.0103207
2058	0.00997664
2070	0.00963262
2082	0.0102715
2094	0.00987835
2106	0.0108121
2118	0.010419
2130	0.0103207
2142	0.00958347
2154	0.00987835
2166	0.0103698
2178	0.0102224
2190	0.0101732
2202	0.0100258
2214	0.0098292
2226	0.00997664
2238	0.0102224
2250	0.0129745
2262	0.0189212
2274	0.0215259
2286	0.0186755
2298	0.0196584
2310	0.0182332
2322	0.0150878
2334	0.0126305
2346	0.013122
2358	0.011451
2370	0.0104681
2382	0.012778
2394	0.00987835
2406	0.00958347
2418	0.00997664
2430	0.00987835
2442	0.00997664
2454	0.00973091
2466	0.00923945
2478	0.00953432
2490	0.00933774
2502	0.00968176
2514	0.00978005
2526	0.00987835
2538	0.00973091
2550	0.00992749
2562	0.00938689
2574	0.00869884
2586	0.0091903
2598	0.00963262
2610	0.0098292
2622	0.0101241
2634	0.00992749
2646	0.0098292
2658	0.0107138
2670	0.0108121
2682	0.0112053
2694	0.0120408
2706	0.013466
2718	0.015825
2730	0.020543
2742	0.0246221
2754	0.0262931
2766	0.0328787
2778	0.0557316
2790	0.13638
2802	0.110185
2814	0.0545521
2826	0.0697873
2838	0.127239
2850	0.0973582
2862	0.0962279
2874	0.0785353
2886	0.0724412
2898	0.074063
2910	0.0678215
2922	0.0686078
2934	0.0881679
2946	0.0982429
2958	0.117115
2970	0.0849734
2982	0.106893
2994	0.0712617
3006	0.0317483
3018	0.0275218
3030	0.028603
3042	0.0256542
3054	0.0279149
3066	0.040398
3078	0.0447229
3090	0.0273252
3102	0.0165131
3114	0.0140558
3126	0.0135643
3138	0.0124339
3150	0.0123356
3162	0.0124831
3174	0.013122
3186	0.0139083
3198	0.0146947
3210	0.0162673
3222	0.0165131
3234	0.0168079
3246	0.0188721
3258	0.0208871
3270	0.0246221
3282	0.0295367
3294	0.0316992
3306	0.0296842
3318	0.0335176
3330	0.0409386
3342	0.0593192
3354	0.0769626
3366	0.0636441
3378	0.0504729
3390	0.0396608
3402	0.0322889
3414	0.0258999
3426	0.0227546
3438	0.0215259
3450	0.0184298
3462	0.0152353
3474	0.0139575
3486	0.0135152
3498	0.0133186
3510	0.0148421
3522	0.0136626
3534	0.0133677
3546	0.0120408
3558	0.0143015
3570	0.0139083
3582	0.011451
3594	0.0152844
3606	0.0112053
3618	0.0126305
3630	0.0147438
3642	0.0126797
3654	0.0179383
3666	0.00860055
3678	0.0189704
3690	0.0166605
3702	0.0114019
3714	0.0145472
3726	0.0133677
3738	0.0181349
3750	0.0156776
3762	0.0134169
3774	0.015481
3786	0.0125322
3798	0.0143015
3810	0.0110087
3822	0.0203956
3834	0.0141049
3846	0.0132203
3858	0.0196093
3870	0.0173977
3882	0.0152844
3894	0.0197567
3906	0.0181349
3918	0.0162673
3930	0.0173977
3942	0.0146455
3954	0.0149404
3966	0.0166605
