Infrared Spectrum: Acetic acid, 1-butyl-3-piperidyl ester
Formula: C 11 H 21 N O 2
CAS: 70289-15-5
Origin: Sadtler Research Labs Under US-EPA Contract
1/CM	ABSORBANCE
450	0.00596215
462	0.0109306
474	0.0185962
486	0.0158991
498	0.0109306
510	0.0149054
522	0.00468455
534	0.0117823
546	0.0102208
558	0.00851736
570	0.0133439
582	0.0139117
594	0.0140536
606	0.0281073
618	0.0149054
630	0.0177445
642	0.0154732
654	0.0208675
666	0.0103628
678	0.0119243
690	0.00695584
702	0.00539433
714	0.00411672
726	0.00638802
738	0.016183
750	0.0144795
762	0.0114984
774	0.0149054
786	0.0204417
798	0.00965301
810	0.0070978
822	0.0035489
834	0.0139117
846	0.0237067
858	0.0371925
870	0.0614669
882	0.042019
894	0.0281073
906	0.0306625
918	0.0313723
930	0.0232808
942	0.0279653
954	0.0465616
966	0.0824764
978	0.0932651
990	0.0836121
1002	0.0997951
1014	0.134148
1026	0.19959
1038	0.292145
1050	0.230395
1062	0.135142
1074	0.118533
1086	0.131309
1098	0.188943
1110	0.145221
1122	0.114417
1134	0.118959
1146	0.129606
1158	0.206404
1170	0.191215
1182	0.109874
1194	0.113139
1206	0.133297
1218	0.227981
1230	0.668187
1242	1.41956
1254	0.514307
1266	0.219322
1278	0.134858
1290	0.0865932
1302	0.0749528
1314	0.0979496
1326	0.0752367
1338	0.070978
1350	0.101215
1362	0.202713
1374	0.310884
1386	0.194764
1398	0.0888645
1410	0.0509622
1422	0.0421609
1434	0.0564985
1446	0.106183
1458	0.110726
1470	0.103912
1482	0.0498266
1494	0.0221451
1506	0.0163249
1518	0.0180284
1530	0.01306
1542	0.0168928
1554	0.016183
1566	0.00681389
1578	0.00383281
1590	0.00681389
1602	0.0083754
1614	0.00511042
1626	0.00766562
1638	0.0112145
1650	0.0147634
1662	0.012776
1674	0.019306
1686	0.022429
1698	0.0218612
1710	0.0333597
1722	0.0600474
1734	0.0992272
1746	0.261057
1758	0.713187
1770	0.359007
1782	0.128044
1794	0.0821925
1806	0.0647319
1818	0.0347792
1830	0.0163249
1842	0.0110726
1854	0.00752367
1866	0.0083754
1878	0.00667193
1890	0.00624606
1902	0.00525237
1914	0.00468455
1926	0.00553628
1938	0.00369086
1950	0.00411672
1962	0.00255521
1974	0.00298108
1986	0.00241325
1998	0.00255521
2010	0.00298108
2022	0.00411672
2034	0.00340694
2046	0.0035489
2058	0.00425868
2070	0.00383281
2082	0.0048265
2094	0.00624606
2106	0.0070978
2118	0.00766562
2130	0.00624606
2142	0.00511042
2154	0.00511042
2166	0.0048265
2178	0.00425868
2190	0.00567824
2202	0.00567824
2214	0.00525237
2226	0.00553628
2238	0.0058202
2250	0.00667193
2262	0.00596215
2274	0.00596215
2286	0.00496846
2298	0.00340694
2310	0.00170347
2322	0.00156152
2334	0.00241325
2346	0.00156152
2358	0.00383281
2370	0.00312303
2382	0.00411672
2394	0.00525237
2406	0.00667193
2418	0.00638802
2430	0.00596215
2442	0.00638802
2454	0.00610411
2466	0.00766562
2478	0.0083754
2490	0.00667193
2502	0.00638802
2514	0.00610411
2526	0.00638802
2538	0.0070978
2550	0.00851736
2562	0.00965301
2574	0.0102208
2586	0.0120663
2598	0.0137697
2610	0.0151893
2622	0.0184543
2634	0.0211514
2646	0.025836
2658	0.032224
2670	0.038754
2682	0.0444322
2694	0.0520979
2706	0.0630285
2718	0.0701263
2730	0.0827603
2742	0.114984
2754	0.151609
2766	0.202145
2778	0.230395
2790	0.229969
2802	0.238202
2814	0.213928
2826	0.12194
2838	0.083754
2850	0.0844638
2862	0.157145
2874	0.244306
2886	0.221593
2898	0.175316
2910	0.197461
2922	0.27724
2934	0.48918
2946	0.724401
2958	0.700553
2970	0.54937
2982	0.18724
2994	0.0749528
3006	0.0481231
3018	0.0380442
3030	0.0335016
3042	0.0300947
3054	0.0241325
3066	0.0218612
3078	0.0187382
3090	0.0170347
3102	0.0154732
3114	0.0147634
3126	0.012776
3138	0.0124921
3150	0.0119243
3162	0.0116404
3174	0.0110726
3186	0.0116404
3198	0.0107887
3210	0.0100789
3222	0.0103628
3234	0.00880127
3246	0.00780758
3258	0.00752367
3270	0.0083754
3282	0.00667193
3294	0.00652998
3306	0.00638802
3318	0.00766562
3330	0.0083754
3342	0.00752367
3354	0.00794954
3366	0.00794954
3378	0.00638802
3390	0.0083754
3402	0.00865932
3414	0.0070978
3426	0.00794954
3438	0.00723976
3450	0.00922714
3462	0.0083754
3474	0.00766562
3486	0.00908518
3498	0.0116404
3510	0.00951105
3522	0.00794954
3534	0.00951105
3546	0.0105047
3558	0.0218612
3570	0.0200158
3582	0.0207256
3594	0.0133439
3606	0.0126341
3618	0.0112145
3630	0.00553628
3642	0.0110726
3654	0.0048265
3666	0.0107887
3678	0.00951105
3690	0.00340694
3702	0.00965301
3714	0.00553628
3726	0.0102208
3738	0.00993692
3750	0
3762	0.0117823
3774	0.00908518
3786	0.00908518
3798	0.0070978
3810	0.0156152
3822	0.00525237
3834	0.0100789
3846	0.00894323
3858	0.0103628
3870	0.0114984
3882	0.00951105
3894	0.0114984
3906	0.00667193
3918	0.0093691
3930	0.012776
3942	0.00723976
3954	0.0122082
3966	0.0083754
