Infrared Spectrum: 3-Phenyl-2-oxazolidinone
Formula: C 9 H 9 N O 2
CAS: 703-56-0
Origin: Sadtler Research Labs Under US-EPA Contract
1/CM	ABSORBANCE
450	0.0190447
462	0.00379281
474	0.00427699
486	0.00637514
498	0.0166238
510	0.0165431
522	0.00758561
534	0.00710142
546	0.00330862
558	0.00080698
570	0.00782771
582	0.00919957
594	0.00363141
606	0.00234024
618	0.00758561
630	0.00242094
642	0.0038735
654	0.0323599
666	0.0594744
678	0.0552781
690	0.0825541
702	0.0492258
714	0.0238059
726	0.0188026
738	0.0492258
750	0.112897
762	0.118545
774	0.0431734
786	0.00984516
798	0.00451909
810	0.00427699
822	0.00605235
834	0.00661724
846	0.00524537
858	0.00564886
870	0.00556816
882	0.00879608
894	0.0117819
906	0.00839259
918	0.00516467
930	0.00564886
942	0.0303424
954	0.0610077
966	0.0246129
978	0.0516467
990	0.0410753
1002	0.0200938
1014	0.0151712
1026	0.0210622
1038	0.0383316
1050	0.0831189
1062	0.125001
1074	0.0995813
1086	0.0634286
1098	0.103536
1110	0.263237
1122	0.344419
1134	0.104343
1146	0.0590709
1158	0.0539063
1170	0.0503556
1182	0.0834417
1194	0.200696
1206	0.33764
1218	0.230716
1230	0.0957078
1242	0.0489837
1254	0.0353457
1266	0.0422051
1278	0.0569728
1290	0.0923185
1302	0.198033
1314	0.197629
1326	0.0513239
1338	0.0198517
1350	0.0204166
1362	0.0254199
1374	0.0744843
1386	0.344823
1398	0.515015
1410	0.11217
1422	0.0363948
1434	0.00968376
1446	0.0121854
1458	0.0163817
1470	0.0333283
1482	0.128148
1494	0.212236
1506	0.31674
1518	0.0537449
1530	0.0151712
1542	0.00661724
1554	0.0081505
1566	0.0111363
1578	0.0242094
1590	0.072144
1602	0.137106
1614	0.0619761
1626	0.0247743
1638	0.0163817
1650	0.0113784
1662	0.00919957
1674	0.00589095
1686	0.00726282
1698	0.00605235
1710	0.00734352
1722	0.0200131
1734	0.0259041
1746	0.0278408
1758	0.0501942
1770	0.093529
1782	0.222484
1794	0.584576
1806	0.80698
1818	0.395501
1830	0.0962727
1842	0.032602
1854	0.0190447
1866	0.0138801
1878	0.0126696
1890	0.00968376
1902	0.00936097
1914	0.00766631
1926	0.0080698
1938	0.00871538
1950	0.00782771
1962	0.00621375
1974	0.00427699
1986	0.00306652
1998	0.00185605
2010	0.00169466
2022	0.00137187
2034	0.00177536
2046	0.00338932
2058	0.00500328
2070	0.00589095
2082	0.00330862
2094	0.00161396
2106	0.00129117
2118	0.00145256
2130	0.00137187
2142	0.00209815
2154	0.00250164
2166	0.00185605
2178	0.00129117
2190	0.000968376
2202	0.000564886
2214	0
2226	0.00040349
2238	0.000968376
2250	0.00209815
2262	0.00451909
2274	0.00548746
2286	0.00629444
2298	0.00702073
2310	0.00734352
2322	0.00613305
2334	0.00338932
2346	0.00459979
2358	0.00371211
2370	0.0039542
2382	0.00468048
2394	0.000968376
2406	0.000484188
2418	0.000564886
2430	0.000726282
2442	0.000887678
2454	0.000564886
2466	0.00080698
2478	0.000645584
2490	0.000645584
2502	0.000645584
2514	0.00080698
2526	0.00121047
2538	0.00177536
2550	0.00274373
2562	0.00322792
2574	0.00266303
2586	0.00282443
2598	0.00322792
2610	0.00177536
2622	0.00161396
2634	0.00104907
2646	0.000968376
2658	0.000726282
2670	0.00129117
2682	0.00169466
2694	0.00225954
2706	0.00242094
2718	0.00306652
2730	0.00379281
2742	0.00330862
2754	0.00274373
2766	0.00363141
2778	0.00435769
2790	0.00524537
2802	0.00476118
2814	0.00621375
2826	0.0080698
2838	0.00863469
2850	0.0106521
2862	0.0154133
2874	0.0268724
2886	0.0451909
2898	0.0508397
2910	0.0552781
2922	0.0760982
2934	0.0533414
2946	0.0405911
2958	0.0363141
2970	0.0443032
2982	0.0611691
2994	0.0606042
3006	0.0439804
3018	0.0255006
3030	0.0236445
3042	0.0363948
3054	0.04971
3066	0.0455944
3078	0.0557623
3090	0.0375246
3102	0.0245322
3114	0.0177536
3126	0.00863469
3138	0.00443839
3150	0.00306652
3162	0.00347001
3174	0.00242094
3186	0.00169466
3198	0.00161396
3210	0.00153326
3222	0.00129117
3234	0.00112977
3246	0.00161396
3258	0.00104907
3270	0.00161396
3282	0.00104907
3294	0.00169466
3306	0.00161396
3318	0.00177536
3330	0.00161396
3342	0.00161396
3354	0.00137187
3366	0.00193675
3378	0.00153326
3390	0.00201745
3402	0.00209815
3414	0.00185605
3426	0.00242094
3438	0.00169466
3450	0.00161396
3462	0.00209815
3474	0.00137187
3486	0.00201745
3498	0.00185605
3510	0.00161396
3522	0.00225954
3534	0.00201745
3546	0.00209815
3558	0.00217885
3570	0.0041963
3582	0.00782771
3594	0.00661724
3606	0.00266303
3618	0.00169466
3630	0.000887678
3642	0.00266303
3654	0.00298583
3666	0.00282443
3678	0.00250164
3690	0.00250164
3702	0.00234024
3714	0.00234024
3726	0.00290513
3738	0.00355071
3750	0.00104907
3762	0.00242094
3774	0.00266303
3786	0.00298583
3798	0.00209815
3810	0.00193675
3822	0.00217885
3834	0.00209815
3846	0.00242094
3858	0.000968376
3870	0.00145256
3882	0.00153326
3894	0.00274373
3906	0.00153326
3918	0.00193675
3930	0.000564886
3942	0.00201745
3954	0.00145256
3966	0.00306652
