Infrared Spectrum: Succinimide, N,N'-[(3-methoxy-propylimino)bismethylene]di-,
Formula: C 14 H 21 N 3 O 5
CAS: 70321-11-8
Origin: Sadtler Research Labs Under US-EPA Contract
1/CM	ABSORBANCE
450	0.0205212
462	0.038293
474	0.0199235
486	0.0146637
498	0.0194852
510	0.0143848
522	0.0313596
534	0.0119541
546	0.0239082
558	0.0114361
570	0.0126315
582	0.00334715
594	0.0292875
606	0.0278929
618	0.0348661
630	0.0447482
642	0.0678993
654	0.0645521
666	0.042716
678	0.0288891
690	0.026299
702	0.0253427
714	0.0249442
726	0.0180905
738	0.0359818
750	0.0213181
762	0.0125917
774	0.0266975
786	0.02084
798	0.0125518
810	0.032037
822	0.0347466
834	0.0278929
846	0.0179311
858	0.0196446
870	0.0239082
882	0.029168
894	0.0327542
906	0.0295266
918	0.0197243
930	0.018489
942	0.0178913
954	0.0174928
966	0.01562
978	0.0167756
990	0.016417
1002	0.0197641
1014	0.0260998
1026	0.0278531
1038	0.0326745
1050	0.0292477
1062	0.0235894
1074	0.0266576
1086	0.0315588
1098	0.0356232
1110	0.0556264
1122	0.0708878
1134	0.103204
1146	0.139823
1158	0.124482
1170	0.0825231
1182	0.0418792
1194	0.0403252
1206	0.0456248
1218	0.0429152
1230	0.0433535
1242	0.0385719
1254	0.0364999
1266	0.0379343
1278	0.0391696
1290	0.0468601
1302	0.0487329
1314	0.054431
1326	0.0847944
1338	0.0957922
1350	0.0684571
1362	0.0366991
1374	0.0260998
1386	0.024227
1398	0.0231113
1410	0.0207603
1422	0.0225534
1434	0.0286898
1446	0.0292477
1458	0.0315588
1470	0.027614
1482	0.0310807
1494	0.0233105
1506	0.0289688
1518	0.0217963
1530	0.0183296
1542	0.0158193
1554	0.0153411
1566	0.0163373
1578	0.02084
1590	0.0157396
1602	0.015899
1614	0.0143051
1626	0.0134284
1638	0.0117947
1650	0.0119939
1662	0.0117947
1674	0.0120736
1686	0.0141855
1698	0.0287695
1710	0.0590533
1722	0.0787377
1734	0.0880619
1746	0.136675
1758	0.244661
1770	0.387791
1782	0.347984
1794	0.211508
1806	0.0559452
1818	0.0424371
1830	0.0312002
1842	0.0160185
1854	0.00976251
1866	0.00832802
1878	0.00808894
1890	0.00784986
1902	0.00745139
1914	0.00681384
1926	0.00713261
1938	0.00677399
1950	0.00681384
1962	0.00597705
1974	0.00569812
1986	0.00482149
1998	0.00506057
2010	0.00426363
2022	0.00450271
2034	0.00462225
2046	0.00514026
2058	0.00482149
2070	0.00426363
2082	0.00426363
2094	0.00410424
2106	0.00410424
2118	0.0039847
2130	0.00394485
2142	0.00338699
2154	0.00386516
2166	0.00394485
2178	0.0039847
2190	0.00382531
2202	0.00386516
2214	0.0033073
2226	0.00366592
2238	0.00390501
2250	0.00342684
2262	0.00374562
2274	0.00402455
2286	0.00474179
2298	0.00689353
2310	0.00808894
2322	0.00657475
2334	0.0059372
2346	0.00844756
2358	0.00689353
2370	0.0052598
2382	0.00609659
2394	0.00243067
2406	0.00191266
2418	0.00235097
2430	0.00187281
2442	0.00207204
2454	0.00211189
2466	0.00231113
2478	0.00207204
2490	0.0019525
2502	0.00191266
2514	0.000956328
2526	0.000956328
2538	0.000916481
2550	0.00139464
2562	0.0012751
2574	0.00147434
2586	0.00139464
2598	0.00199235
2610	0.00223143
2622	0.00199235
2634	0.00247051
2646	0.00239082
2658	0.0027096
2670	0.00310807
2682	0.00259005
2694	0.00282914
2706	0.00298853
2718	0.00334715
2730	0.00386516
2742	0.00478164
2754	0.00577782
2766	0.00693338
2778	0.00876634
2790	0.0107188
2802	0.014066
2814	0.0190867
2826	0.0249841
2838	0.029168
2850	0.0312002
2862	0.0336707
2874	0.0343083
2886	0.0316385
2898	0.0302439
2910	0.0300845
2922	0.0320768
2934	0.0367389
2946	0.040883
2958	0.0381734
2970	0.0332324
2982	0.0257013
2994	0.0238684
3006	0.0201626
3018	0.017453
3030	0.012751
3042	0.00920466
3054	0.00717246
3066	0.00749124
3078	0.00788971
3090	0.00717246
3102	0.00633567
3114	0.00529965
3126	0.00394485
3138	0.00386516
3150	0.00318776
3162	0.00282914
3174	0.00282914
3186	0.00247051
3198	0.0026299
3210	0.00215174
3222	0.00167357
3234	0.0020322
3246	0.00187281
3258	0.0019525
3270	0.00171342
3282	0.00215174
3294	0.00187281
3306	0.00211189
3318	0.00219158
3330	0.0019525
3342	0.00079694
3354	0.00215174
3366	0.00191266
3378	0.0013548
3390	0.00223143
3402	0.00199235
3414	0.00350654
3426	0.00773032
3438	0.0168154
3450	0.0302837
3462	0.0284906
3474	0.0219159
3486	0.00860695
3498	0.00326745
3510	0.00255021
3522	0.00386516
3534	0.00470195
3546	0.00462225
3558	0.00549889
3570	0.00673414
3582	0.00637552
3594	0.00498088
3606	0.00414409
3618	0.00426363
3630	0.00557858
3642	0.00498088
3654	0.00442302
3666	0.00597705
3678	0.00378547
3690	0.00374562
3702	0.00705292
3714	0.00573797
3726	0.00609659
3738	0.00514026
3750	0.0053395
3762	0.00494103
3774	0.0046621
3786	0.00362608
3798	0.0052598
3810	0.00749124
3822	0.00406439
3834	0.00605674
3846	0.00446286
3858	0.00426363
3870	0.00462225
3882	0.00318776
3894	0.0066146
3906	0.00462225
3918	0.00725215
3930	0.00657475
3942	0.00454256
3954	0.00450271
3966	0.00697322
