Infrared Spectrum: (2-Methoxyphenyl)acetonitrile
Formula: C 9 H 9 N O
CAS: 7035-03-2
Origin: Sadtler Research Labs Under US-EPA Contract
1/CM	ABSORBANCE
450	0.0172446
462	0.014781
474	0.0113639
486	0.00945669
498	0.0042118
510	0.00286085
522	0.00691372
534	0.0133506
546	0.0101719
558	0.0114434
570	0.0150195
582	0.018516
594	0.00905935
606	0.00921829
618	0.0131122
630	0.00691372
642	0.00365553
654	0.00357606
666	0.000238404
678	0.00317872
690	0.0106487
702	0.0251914
714	0.0491112
726	0.0736668
738	0.137559
750	0.342507
762	0.237371
774	0.0638923
786	0.0207411
798	0.0143837
810	0.0213769
822	0.0309131
834	0.0278138
846	0.0214564
858	0.0178803
870	0.00882095
882	0.0079468
894	0.00897988
906	0.0132712
918	0.0184366
930	0.0202643
942	0.0244761
954	0.0224894
966	0.018675
978	0.0237609
990	0.0262244
1002	0.0395751
1014	0.0924213
1026	0.201928
1038	0.236815
1050	0.17332
1062	0.0843155
1074	0.0344891
1086	0.0368732
1098	0.100606
1110	0.228629
1122	0.146301
1134	0.0369526
1146	0.0287674
1158	0.0685809
1170	0.0976662
1182	0.0651638
1194	0.0518131
1206	0.0490318
1218	0.0754151
1230	0.203359
1242	0.589811
1254	0.783793
1266	0.374612
1278	0.187386
1290	0.188339
1302	0.143201
1314	0.0897988
1326	0.0859049
1338	0.0651638
1350	0.0457736
1362	0.0263834
1374	0.0231252
1386	0.0264628
1398	0.0267807
1410	0.033615
1422	0.073349
1434	0.116977
1446	0.1583
1458	0.198432
1470	0.255887
1482	0.262006
1494	0.487059
1506	0.387645
1518	0.103785
1530	0.0417207
1542	0.0321051
1554	0.0246351
1566	0.0333766
1578	0.082011
1590	0.177134
1602	0.222351
1614	0.11054
1626	0.0332176
1638	0.021059
1650	0.0121586
1662	0.0103308
1674	0.0124765
1686	0.0129533
1698	0.0197081
1710	0.026145
1722	0.0197081
1734	0.0129533
1746	0.0100924
1758	0.00866201
1770	0.00945669
1782	0.00945669
1794	0.00842361
1806	0.00611904
1818	0.00508595
1830	0.00437074
1842	0.00365553
1854	0.00381446
1866	0.00556276
1878	0.00754946
1890	0.00921829
1902	0.00866201
1914	0.00874148
1926	0.00937722
1938	0.00882095
1950	0.00262244
1962	0.000635744
1974	0.00111255
1986	0.00270191
1998	0.00492702
2010	0.00802627
2022	0.00874148
2034	0.0081852
2046	0.00961563
2058	0.0109666
2070	0.0099335
2082	0.00675478
2094	0.00357606
2106	0.00238404
2118	0.0017483
2130	0.0017483
2142	0.00254298
2154	0.00166883
2166	0.000874148
2178	0.000317872
2190	0
2202	0.000317872
2214	0.000715212
2226	0.00190723
2238	0.00452968
2250	0.0116023
2262	0.0143042
2274	0.00778786
2286	0.00389393
2298	0.00294032
2310	0.00262244
2322	0.00357606
2334	0.0039734
2346	0.00333766
2358	0.00365553
2370	0.00333766
2382	0.00254298
2394	0.00150989
2406	0.00214564
2418	0.00238404
2430	0.00158936
2442	0.00111255
2454	0.00111255
2466	0.00158936
2478	0.00309925
2490	0.00460914
2502	0.00508595
2514	0.00445021
2526	0.00516542
2538	0.00691372
2550	0.00659584
2562	0.00500648
2574	0.00484755
2586	0.00452968
2598	0.00452968
2610	0.0042118
2622	0.00389393
2634	0.00365553
2646	0.00309925
2658	0.00254298
2670	0.0022251
2682	0.0022251
2694	0.00294032
2706	0.00389393
2718	0.00476808
2730	0.00508595
2742	0.00540382
2754	0.00603957
2766	0.0059601
2778	0.00635744
2790	0.0081852
2802	0.011205
2814	0.0158936
2826	0.0272575
2838	0.0646075
2850	0.113003
2862	0.0748589
2874	0.0470451
2886	0.0491907
2898	0.0592037
2910	0.0786733
2922	0.103785
2934	0.135652
2946	0.191836
2958	0.186194
2970	0.143042
2982	0.0799448
2994	0.0626208
3006	0.103467
3018	0.107202
3030	0.0787528
3042	0.0814547
3054	0.0650843
3066	0.0766866
3078	0.10013
3090	0.0866201
3102	0.0386214
3114	0.0233636
3126	0.0146221
3138	0.00810574
3150	0.00611904
3162	0.00603957
3174	0.0061985
3186	0.0059601
3198	0.00476808
3210	0.00413234
3222	0.00309925
3234	0.00270191
3246	0.00230457
3258	0.00182776
3270	0.00230457
3282	0.00127149
3294	0.00158936
3306	0.00135096
3318	0.00182776
3330	0.0017483
3342	0.00111255
3354	0.00182776
3366	0.0017483
3378	0.00166883
3390	0.00135096
3402	0.00127149
3414	0.00111255
3426	0.00135096
3438	0.00119202
3450	0.000953616
3462	0.000476808
3474	0.00135096
3486	0.00079468
3498	0.00158936
3510	0.000635744
3522	0.00079468
3534	0.00182776
3546	0.00103308
3558	0.00143042
3570	0.00127149
3582	0.00103308
3594	0.000238404
3606	0.00150989
3618	0.00127149
3630	0.000953616
3642	0.00143042
3654	0.00246351
3666	0.00246351
3678	0.00158936
3690	0.00119202
3702	0.00158936
3714	0.00135096
3726	0.000715212
3738	0.00190723
3750	0.00079468
3762	0.00150989
3774	0.000874148
3786	0.00158936
3798	0.00119202
3810	0.00150989
3822	0.000953616
3834	0.0019867
3846	0.00309925
3858	0.00182776
3870	0.00278138
3882	0.00238404
3894	0.00413234
3906	0.00286085
3918	0.00190723
3930	0.00111255
3942	0.000476808
3954	0.000635744
3966	0.00166883
