Infrared Spectrum: 1,2-Benzenediamine, N,N,N',N'-tetramethyl-
Formula: C 10 H 16 N 2
CAS: 704-01-8
Origin: Sadtler Research Labs Under US-EPA Contract
1/CM	ABSORBANCE
450	0.0412658
462	0.00953659
474	0.00570413
486	0.0134582
498	0.0320857
510	0.0390376
522	0.0181819
534	0.00900183
546	0.0286098
558	0.105794
570	0.0827099
582	0.0323531
594	0.00677365
606	0.00383246
618	0.00169341
630	0.00356508
642	0.00365421
654	0.00383246
666	0.00320857
678	0.00953659
690	0.0432266
702	0.0284315
714	0.00864532
726	0.0278076
738	0.304012
750	0.490377
762	0.105081
774	0.0274511
786	0.0185384
798	0.00516937
810	0.00481286
822	0.0032977
834	0.000980397
846	0.0042781
858	0.00704103
870	0.00499111
882	0.00606064
894	0.00882357
906	0.0180037
918	0.0457222
930	0.110785
942	0.239395
954	0.474245
966	0.183602
978	0.0211231
990	0.0122995
1002	0.0140821
1014	0.0171124
1026	0.0262925
1038	0.0798578
1050	0.288148
1062	0.251427
1074	0.0854728
1086	0.139484
1098	0.283602
1110	0.169876
1122	0.10615
1134	0.224867
1146	0.521393
1158	0.515154
1170	0.312836
1182	0.168272
1194	0.274155
1206	0.292158
1218	0.149288
1230	0.0810164
1242	0.0648845
1254	0.0581999
1266	0.0591803
1278	0.099644
1290	0.16747
1302	0.209805
1314	0.499289
1326	0.54822
1338	0.24091
1350	0.1123
1362	0.0654192
1374	0.0461678
1386	0.0393941
1398	0.0473264
1410	0.0784318
1422	0.101783
1434	0.150536
1446	0.334405
1458	0.473977
1470	0.350715
1482	0.376116
1494	0.731911
1506	0.759273
1518	0.264262
1530	0.125223
1542	0.0714799
1554	0.0562391
1566	0.0748667
1578	0.136364
1590	0.283156
1602	0.232532
1614	0.0745993
1626	0.0377007
1638	0.0326205
1650	0.0312836
1662	0.0302141
1674	0.0254012
1686	0.0194297
1698	0.0187167
1710	0.020321
1722	0.0157755
1734	0.0128343
1746	0.00935834
1758	0.0131908
1770	0.01123
1782	0.005615
1794	0.00784318
1806	0.00926921
1818	0.0089127
1830	0.0147951
1842	0.0155972
1854	0.0122995
1866	0.0204992
1878	0.0283424
1890	0.0173798
1902	0.016132
1914	0.0212122
1926	0.0079323
1938	0.00320857
1950	0.00240643
1962	0.00267381
1974	0.00320857
1986	0.00383246
1998	0.00650627
2010	0.00926921
2022	0.00570413
2034	0.00213905
2046	0.00106952
2058	0.00142603
2070	0.00320857
2082	0.00739754
2094	0.0120321
2106	0.0089127
2118	0.00392159
2130	0.00285206
2142	0.00267381
2154	0.00169341
2166	0.000178254
2178	0.000802143
2190	0.00276294
2202	0.00187167
2214	0.00124778
2226	0.00276294
2238	0.00374333
2250	0.00311945
2262	0.00276294
2274	0.00320857
2286	0.0032977
2298	0.00356508
2310	0.00285206
2322	0.00169341
2334	0.00169341
2346	0.0023173
2358	0.00276294
2370	0.00392159
2382	0.00454548
2394	0.00303032
2406	0.00267381
2418	0.00276294
2430	0.00320857
2442	0.00481286
2454	0.00819968
2466	0.0107844
2478	0.0106952
2490	0.0114974
2502	0.0125669
2514	0.0117648
2526	0.0111409
2538	0.0114083
2550	0.0130125
2562	0.0147951
2574	0.0179145
2586	0.0163102
2598	0.0156864
2610	0.018271
2622	0.0206775
2634	0.0220144
2646	0.0208557
2658	0.0179145
2670	0.0157755
2682	0.0167559
2694	0.0197862
2706	0.0236187
2718	0.0297684
2730	0.0398398
2742	0.0597151
2754	0.10205
2766	0.220946
2778	0.571304
2790	0.825673
2802	0.567828
2814	0.364529
2826	0.650181
2838	0.803123
2850	0.512569
2862	0.529414
2874	0.467115
2886	0.391089
2898	0.361945
2910	0.354102
2922	0.386722
2934	0.580217
2946	0.89127
2958	0.539842
2970	0.311321
2982	0.429325
2994	0.23485
3006	0.136186
3018	0.115063
3030	0.120945
3042	0.128521
3054	0.162033
3066	0.249823
3078	0.202229
3090	0.094742
3102	0.0676474
3114	0.0525849
3126	0.0297684
3138	0.0222817
3150	0.0206775
3162	0.0147951
3174	0.0110517
3186	0.00962572
3198	0.00882357
3210	0.00739754
3222	0.00650627
3234	0.00588238
3246	0.00543675
3258	0.0042781
3270	0.00409984
3282	0.00356508
3294	0.00303032
3306	0.00276294
3318	0.00311945
3330	0.00356508
3342	0.00409984
3354	0.00383246
3366	0.00481286
3378	0.00606064
3390	0.0108735
3402	0.0121213
3414	0.00748667
3426	0.0046346
3438	0.0032977
3450	0.00240643
3462	0.00285206
3474	0.00276294
3486	0.00392159
3498	0.0032977
3510	0.00276294
3522	0.00249556
3534	0.00187167
3546	0.00249556
3558	0.00285206
3570	0.00240643
3582	0.00267381
3594	0.00187167
3606	0.00160429
3618	0.00240643
3630	0.0023173
3642	0.00178254
3654	0.0023173
3666	0.00196079
3678	0.00196079
3690	0.00106952
3702	0.00169341
3714	0.00142603
3726	0.00196079
3738	0.00196079
3750	0.00213905
3762	0.00258468
3774	0.00204992
3786	0.00276294
3798	0.00178254
3810	0.00160429
3822	0.00249556
3834	0.00311945
3846	0.00534762
3858	0.00222818
3870	0.00204992
3882	0.00169341
3894	0.00285206
3906	0.00178254
3918	0.000802143
3930	0.00187167
3942	0.00311945
3954	0.00204992
3966	0.00392159
