Infrared Spectrum: Ethanone, 1-(2-hydroxy-5-methoxyphenyl)-
Formula: C 9 H 10 O 3
CAS: 705-15-7
Origin: Sadtler Research Labs Under US-EPA Contract
1/CM	ABSORBANCE
450	0.000979154
462	0.00222535
474	0.00560788
486	0.0105927
498	0.0102366
510	0.0161115
522	0.0228766
534	0.0264372
546	0.0197611
558	0.0134411
570	0.0114828
582	0.0101476
594	0.01264
606	0.0219865
618	0.0543876
630	0.127201
642	0.126578
654	0.0413025
666	0.0267042
678	0.0334693
690	0.0662264
702	0.0817149
714	0.0614197
726	0.0615977
738	0.0834951
750	0.117855
762	0.138239
774	0.162629
786	0.14171
798	0.0432608
810	0.0331132
822	0.0795785
834	0.102099
846	0.0620428
858	0.0455752
870	0.0545656
882	0.0280394
894	0.0308879
906	0.0281284
918	0.0118389
930	0.0144203
942	0.0392552
954	0.108597
966	0.0836732
978	0.0265262
990	0.0249239
1002	0.032045
1014	0.05056
1026	0.10468
1038	0.206245
1050	0.234819
1062	0.142778
1074	0.0518061
1086	0.0251019
1098	0.0153104
1110	0.019227
1122	0.0283955
1134	0.0344484
1146	0.0481566
1158	0.0675616
1170	0.130851
1182	0.267398
1194	0.492336
1206	0.728402
1218	0.553311
1230	0.346264
1242	0.259921
1254	0.310926
1266	0.311282
1278	0.448453
1290	0.639744
1302	0.356234
1314	0.374126
1326	0.338965
1338	0.200192
1350	0.142867
1362	0.239181
1374	0.313863
1386	0.187285
1398	0.162094
1410	0.186484
1422	0.191825
1434	0.161382
1446	0.169839
1458	0.200816
1470	0.386232
1482	0.818306
1494	0.696268
1506	0.227253
1518	0.0896371
1530	0.0695199
1542	0.0610636
1554	0.0656923
1566	0.088925
1578	0.151057
1590	0.158623
1602	0.129248
1614	0.155775
1626	0.203575
1638	0.17242
1650	0.393353
1662	0.729826
1674	0.283243
1686	0.0656923
1698	0.0313329
1710	0.0243898
1722	0.025458
1734	0.025636
1746	0.0200281
1758	0.0150434
1770	0.0115718
1782	0.00792225
1794	0.00480676
1806	0.00436169
1818	0.00373859
1830	0.00284845
1842	0.0038276
1854	0.00436169
1866	0.00427267
1878	0.0044507
1890	0.00712112
1902	0.00988055
1914	0.00685408
1926	0.00338253
1938	0.00453971
1950	0.0056969
1962	0.00542985
1974	0.0038276
1986	0.00275943
1998	0.00302648
2010	0.0044507
2022	0.00542985
2034	0.00631999
2046	0.00721013
2058	0.00738816
2070	0.00792225
2082	0.00685408
2094	0.00587492
2106	0.00498478
2118	0.00293746
2130	0.00195831
2142	0.00106817
2154	0.00106817
2166	0.00106817
2178	0.00151324
2190	0.000979154
2202	0.000801126
2214	0.000534084
2226	0.000979154
2238	0.00151324
2250	0.00249239
2262	0.00364957
2274	0.00391662
2286	0.00338253
2298	0.00347155
2310	0.00391662
2322	0.00409464
2334	0.00329352
2346	0.00249239
2358	0.00400563
2370	0.00542985
2382	0.00587492
2394	0.00542985
2406	0.00436169
2418	0.00391662
2430	0.00373859
2442	0.0044507
2454	0.00534084
2466	0.00587492
2478	0.00542985
2490	0.00427267
2502	0.00427267
2514	0.00534084
2526	0.00631999
2538	0.00694309
2550	0.00863436
2562	0.00970253
2574	0.0112158
2586	0.0110377
2598	0.0103256
2610	0.0102366
2622	0.00907943
2634	0.00907943
2646	0.00979154
2658	0.0105927
2670	0.0120169
2682	0.0135301
2694	0.0136191
2706	0.0137082
2718	0.0135301
2730	0.0145093
2742	0.0144203
2754	0.0150434
2766	0.0163786
2778	0.018871
2790	0.0202952
2802	0.0230546
2814	0.0271493
2826	0.038365
2838	0.0773532
2850	0.0791334
2862	0.0486016
2874	0.0429938
2886	0.04424
2898	0.0545656
2910	0.0750388
2922	0.0862546
2934	0.0982715
2946	0.134856
2958	0.115807
2970	0.0793115
2982	0.069876
2994	0.0809137
3006	0.136726
3018	0.104057
3030	0.0619537
3042	0.0621318
3054	0.0737036
3066	0.0741487
3078	0.082694
3090	0.0789554
3102	0.0689859
3114	0.0688078
3126	0.0681847
3138	0.0653363
3150	0.0622208
3162	0.0599954
3174	0.0584822
3186	0.0575921
3198	0.0564349
3210	0.0549216
3222	0.0529633
3234	0.050738
3246	0.0493138
3258	0.0480676
3270	0.0485126
3282	0.0485126
3294	0.0469994
3306	0.0453081
3318	0.04424
3330	0.0390771
3342	0.0349825
3354	0.0309769
3366	0.0291966
3378	0.0264372
3390	0.0247459
3402	0.0231436
3414	0.0210963
3426	0.019316
3438	0.0185149
3450	0.0167346
3462	0.0147763
3474	0.0138862
3486	0.012462
3498	0.0110377
3510	0.00934647
3522	0.0082783
3534	0.00712112
3546	0.00605295
3558	0.00551887
3570	0.00427267
3582	0.00373859
3594	0.00409464
3606	0.00267042
3618	0.00213634
3630	0.00115718
3642	0.00249239
3654	0.00258141
3666	0.00195831
3678	0.0012462
3690	0.000712112
3702	0.00106817
3714	0.000623098
3726	0.000178028
3738	0.00044507
3750	0.000178028
3762	0.000979154
3774	0.000712112
3786	0.000356056
3798	8.9014e-05
3810	8.9014e-05
3822	8.9014e-05
3834	0.000178028
3846	0.00106817
3858	0.000801126
3870	0.000979154
3882	0.00106817
3894	0.00178028
3906	0.00106817
3918	0.000534084
3930	0.00089014
3942	0.00089014
3954	8.9014e-05
3966	8.9014e-05
