Infrared Spectrum: Ethanol, 2-(4-chloro-m-tolyl)-,
Formula: C 9 H 11 Cl O 2
CAS: 705-82-8
Origin: Sadtler Research Labs Under US-EPA Contract
1/CM	ABSORBANCE
450	0.0125186
462	0.00948377
474	0.00341416
486	0.00276384
498	0.00292642
510	0.00520253
522	0.000975474
534	0.00130063
546	0.000867088
558	0.00281804
570	0.00634058
582	0.0117599
594	0.0077496
606	0.00281804
618	0.0106218
630	0.0262836
642	0.0462266
654	0.0633516
666	0.0727812
678	0.0145237
690	0.0039019
702	0.00661155
714	0.00325158
726	0.00346835
738	0.00655735
750	0.00054193
762	0.000650316
774	0.00298062
786	0.0178295
798	0.0528924
810	0.0640561
822	0.0343042
834	0.0267713
846	0.0480692
858	0.0704509
870	0.0801514
882	0.0601
894	0.055873
906	0.0396151
918	0.0188592
930	0.0144153
942	0.0197804
954	0.0313777
966	0.0273133
978	0.0247662
990	0.03593
1002	0.0567401
1014	0.09771
1026	0.228153
1038	0.449368
1050	0.320064
1062	0.194824
1074	0.170058
1086	0.156022
1098	0.101233
1110	0.0645439
1122	0.103617
1134	0.126541
1146	0.111421
1158	0.20447
1170	0.41501
1182	0.121826
1194	0.0517543
1206	0.0570652
1218	0.0850288
1230	0.256279
1242	0.440589
1254	0.138409
1266	0.117924
1278	0.251781
1290	0.350466
1302	0.239912
1314	0.133044
1326	0.0521337
1338	0.0428125
1350	0.0441673
1362	0.0712638
1374	0.101666
1386	0.0717515
1398	0.088172
1410	0.119441
1422	0.0837282
1434	0.0668742
1446	0.0809101
1458	0.178078
1470	0.258772
1482	0.54193
1494	0.20615
1506	0.0755992
1518	0.0537053
1530	0.0409157
1542	0.0391815
1554	0.0469311
1566	0.0788508
1578	0.130605
1590	0.121284
1602	0.142365
1614	0.0905565
1626	0.0371764
1638	0.0131689
1650	0.00829153
1662	0.00298062
1674	0.00379351
1686	0.00471479
1698	0.00503995
1710	0.00487737
1722	0.00845411
1734	0.0110012
1746	0.0100799
1758	0.00628639
1770	0.00449802
1782	0.00205933
1794	0.00287223
1806	0.000975474
1818	0.000162579
1830	0.00200514
1842	0.00243868
1854	0.00428125
1866	0.00612381
1878	0.00661155
1890	0.00547349
1902	0.00428125
1914	0.00335997
1926	0.00249288
1938	0.00292642
1950	0.00341416
1962	0.00379351
1974	0.00260126
1986	0.00162579
1998	0.000975474
2010	0.00102967
2022	0.0015716
2034	0.0015716
2046	0.000758702
2058	0.000867088
2070	0.0015174
2082	0.00173418
2094	0.00205933
2106	0.00211353
2118	0.00184256
2130	0.00140902
2142	0.000975474
2154	0.000975474
2166	0.000921281
2178	0.00054193
2190	0.000758702
2202	0.00119225
2214	0.000596123
2226	0.000596123
2238	0.000704509
2250	0.000975474
2262	0.000487737
2274	0.000162579
2286	0.000867088
2298	0.00189675
2310	0.00276384
2322	0.00140902
2334	0.000216772
2346	0.00731606
2358	0.000812895
2370	0.00444383
2382	0.00476898
2394	0.00270965
2406	0.00292642
2418	0.00287223
2430	0.00298062
2442	0.00352255
2454	0.00330577
2466	0.00303481
2478	0.00238449
2490	0.00200514
2502	0.00222191
2514	0.00238449
2526	0.00363093
2538	0.0038477
2550	0.00346835
2562	0.00254707
2574	0.00227611
2586	0.00146321
2598	0.00146321
2610	0.0015174
2622	0.00211353
2634	0.00243868
2646	0.00298062
2658	0.00346835
2670	0.00373932
2682	0.00438963
2694	0.00520253
2706	0.00634058
2718	0.00823734
2730	0.0100257
2742	0.0101883
2754	0.00959216
2766	0.00905023
2778	0.00959216
2790	0.010947
2802	0.0119767
2814	0.0140902
2826	0.017125
2838	0.021894
2850	0.0306732
2862	0.0498576
2874	0.0837824
2886	0.11077
2898	0.0937539
2910	0.0874133
2922	0.116678
2934	0.174935
2946	0.178295
2958	0.151415
2970	0.135374
2982	0.0935371
2994	0.057011
3006	0.0304565
3018	0.0227069
3030	0.0260668
3042	0.0301855
3054	0.0244952
3066	0.023303
3078	0.0269339
3090	0.0228153
3102	0.0172876
3114	0.0104592
3126	0.00574446
3138	0.00417286
3150	0.00373932
3162	0.00314319
3174	0.00200514
3186	0.00227611
3198	0.00205933
3210	0.00167998
3222	0.0015716
3234	0.00162579
3246	0.000487737
3258	0.000975474
3270	0.00102967
3282	0.000379351
3294	0.000758702
3306	0.0015716
3318	0.00140902
3330	0.000975474
3342	0.000758702
3354	0.000975474
3366	0.00108386
3378	0.000596123
3390	0.000867088
3402	0.00124644
3414	0.00173418
3426	0.00140902
3438	0.00167998
3450	0.00167998
3462	0.00227611
3474	0.00140902
3486	0.00135483
3498	0.00200514
3510	0.00211353
3522	0.00249288
3534	0.00238449
3546	0.00373932
3558	0.00276384
3570	0.00363093
3582	0.00314319
3594	0.00590704
3606	0.00579865
3618	0.0118683
3630	0.0241159
3642	0.0507788
3654	0.0389648
3666	0.0319739
3678	0.0306732
3690	0.0162037
3702	0.00628639
3714	0.00639477
3726	0.00487737
3738	0.00634058
3750	0.00417286
3762	0.00417286
3774	0.00189675
3786	0.00173418
3798	0.00330577
3810	0.000216772
3822	0.0046606
3834	0.00222191
3846	0.00254707
3858	0.00260126
3870	0.00292642
3882	0.00319739
3894	0.003089
3906	0.00140902
3918	0.00222191
3930	0.00357674
3942	0.00173418
3954	0.00281804
3966	0.000379351
