Infrared Spectrum: Benzene, 1-(chloromethyl)-3-(trifluoromethyl)-
Formula: C 8 H 6 Cl F 3
CAS: 705-29-3
Origin: Sadtler Research Labs Under US-EPA Contract
1/CM	ABSORBANCE
450	0.005937
462	0.00665353
474	0.0124882
486	0.00798424
498	0.0182204
510	0.0080866
522	0.00368503
534	0.0127952
546	0.0157637
558	0.0293779
570	0.00655117
582	0.00880313
594	0.00839368
606	0.0113622
618	0.00972439
630	0.0249763
642	0.0125905
654	0.0529212
666	0.0801494
678	0.0157637
690	0.04637
702	0.102669
714	0.0671495
726	0.126622
738	0.0840392
750	0.0373621
762	0.0358267
774	0.0207795
786	0.0314251
798	0.0635668
810	0.0324488
822	0.00777951
834	0.0106456
846	0.0051181
858	0.00409448
870	0.0162756
882	0.0177086
894	0.0160708
906	0.0299921
918	0.0385905
930	0.0157637
942	0.00931494
954	0.00409448
966	0.00337795
978	0.005937
990	0.0042992
1002	0.00696062
1014	0.00798424
1026	0.0110551
1038	0.00982675
1050	0.0170945
1062	0.0528188
1074	0.196535
1086	0.184866
1098	0.101031
1110	0.0387952
1122	0.0555826
1134	0.193464
1146	0.741817
1158	0.701077
1170	0.405558
1182	0.708857
1194	0.350999
1206	0.194078
1218	0.0565038
1230	0.0456535
1242	0.0421731
1254	0.0881337
1266	0.194795
1278	0.100008
1290	0.0732912
1302	0.0814802
1314	0.166645
1326	0.572101
1338	0.923305
1350	0.100929
1362	0.0352125
1374	0.0152519
1386	0.00972439
1398	0.0100315
1410	0.0172992
1422	0.0229291
1434	0.0235433
1446	0.0621337
1458	0.0585511
1470	0.0177086
1482	0.014433
1494	0.0163779
1506	0.0123858
1518	0.00194488
1530	0.00573227
1542	0.000102362
1554	0.00675589
1566	0.00849605
1578	0.0072677
1590	0.0100315
1602	0.0139212
1614	0.0116693
1626	0.00992911
1638	0.00562991
1650	0.00194488
1662	0.00665353
1674	0.00685825
1686	0.00522046
1698	0.00194488
1710	0.00644881
1722	0.0103386
1734	0.00583463
1746	0.00368503
1758	0.00583463
1770	0.00665353
1782	0.00634644
1794	0.005937
1806	0.00655117
1818	0.00501574
1830	0.0042992
1842	0.00634644
1854	0.00440157
1866	0.00286614
1878	0.00573227
1890	0.0072677
1902	0.00982675
1914	0.00532282
1926	0.00603936
1938	0.00573227
1950	0.00788187
1962	0.0051181
1974	0.00399212
1986	0.00348031
1998	0.00286614
2010	0.00225196
2022	0.0029685
2034	0.0029685
2046	0.00337795
2058	0.00327558
2070	0.00440157
2082	0.0042992
2094	0.00348031
2106	0.00286614
2118	0.00174015
2130	0.00255905
2142	0.00245669
2154	0.00184252
2166	0.00327558
2178	0.00204724
2190	0.00204724
2202	0.00337795
2214	0.00450393
2226	0.00358267
2238	0.00358267
2250	0.00337795
2262	0.00378739
2274	0.00225196
2286	0.0029685
2298	0.00184252
2310	0.000102362
2322	0.00235433
2334	0.00286614
2346	0.00133071
2358	0.00245669
2370	0.00153543
2382	0.000818896
2394	0.00133071
2406	0.0021496
2418	0.00235433
2430	0.00194488
2442	0.00235433
2454	0.00194488
2466	0.00184252
2478	0.00143307
2490	0.00286614
2502	0.00225196
2514	0.00143307
2526	0.00204724
2538	0.00174015
2550	0.00143307
2562	0.00153543
2574	0.00102362
2586	0.00153543
2598	0.0021496
2610	0.00153543
2622	0.00184252
2634	0.00194488
2646	0.00194488
2658	0.0029685
2670	0.00255905
2682	0.00153543
2694	0.0021496
2706	0.00194488
2718	0.00225196
2730	0.00307086
2742	0.00184252
2754	0.00184252
2766	0.0021496
2778	0.00184252
2790	0.00235433
2802	0.0021496
2814	0.00153543
2826	0.00255905
2838	0.00204724
2850	0.00286614
2862	0.00348031
2874	0.00388976
2886	0.00501574
2898	0.00419684
2910	0.00368503
2922	0.00368503
2934	0.00644881
2946	0.0105433
2958	0.014126
2970	0.0253858
2982	0.0185275
2994	0.0106456
3006	0.0122834
3018	0.0102362
3030	0.0105433
3042	0.0112598
3054	0.0176063
3066	0.0188346
3078	0.0207795
3090	0.0182204
3102	0.00839368
3114	0.00562991
3126	0.00522046
3138	0.00235433
3150	0.00194488
3162	0.00225196
3174	0.00133071
3186	0.00174015
3198	0.00194488
3210	0.00143307
3222	0.00235433
3234	0.00235433
3246	0.00184252
3258	0.00174015
3270	0.00153543
3282	0.00174015
3294	0.00133071
3306	0.00245669
3318	0.00122834
3330	0.00143307
3342	0.00225196
3354	0.00245669
3366	0.00255905
3378	0.00225196
3390	0.00112598
3402	0.00153543
3414	0.00225196
3426	0.00133071
3438	0.00255905
3450	0.00204724
3462	0.00112598
3474	0.00153543
3486	0.00122834
3498	0.00245669
3510	0.00184252
3522	0.00276377
3534	0.00133071
3546	0.0021496
3558	0.00276377
3570	0.00388976
3582	0.00388976
3594	0.00266141
3606	0.00317322
3618	0.00368503
3630	0.00102362
3642	0.00552755
3654	0.000102362
3666	0.00573227
3678	0.00255905
3690	0.00122834
3702	0.00573227
3714	0.00358267
3726	0.00450393
3738	0.00358267
3750	0.00051181
3762	0.00327558
3774	0.00399212
3786	0.00194488
3798	0.00143307
3810	0.00634644
3822	0.000102362
3834	0.00286614
3846	0.0021496
3858	0.000102362
3870	0.000614172
3882	0.00184252
3894	0.00245669
3906	0
3918	0.00337795
3930	0.00440157
3942	0.00122834
3954	0.000614172
3966	0.00133071
