Infrared Spectrum: Cyclohexane, (1-methylpropyl)-
Formula: C 10 H 20
CAS: 7058-01-7
Origin: Sadtler Research Labs Under US-EPA Contract
1/CM	ABSORBANCE
450	0.0324058
462	0.0175846
474	0.024744
486	0.00125604
498	0.0231111
510	0.0188406
522	0.00665701
534	0.0202222
546	0.0155749
558	0.0138164
570	0.0197198
582	0.0149469
594	0.00728503
606	0.0158261
618	0.0141933
630	0.0153237
642	0.0163285
654	0.01143
666	0.0168309
678	0.0140676
690	0.0113044
702	0.0143189
714	0.0123092
726	0.00766184
738	0.0157005
750	0.01143
762	0.012058
774	0.0125604
786	0.0106763
798	0.0110532
810	0.0145701
822	0.0113044
834	0.0189662
846	0.0232367
858	0.0140676
870	0.0138164
882	0.0165797
894	0.0208503
906	0.0195942
918	0.018715
930	0.0143189
942	0.0138164
954	0.0110532
966	0.0136908
978	0.0242416
990	0.0192174
1002	0.0113044
1014	0.012686
1026	0.0125604
1038	0.0128116
1050	0.0121836
1062	0.0115556
1074	0.0121836
1086	0.0125604
1098	0.0115556
1110	0.0128116
1122	0.0128116
1134	0.0121836
1146	0.0157005
1158	0.0228599
1170	0.0280097
1182	0.0184638
1194	0.0124348
1206	0.0119324
1218	0.0138164
1230	0.0130628
1242	0.0130628
1254	0.0169565
1266	0.0232367
1278	0.024116
1290	0.0145701
1302	0.0130628
1314	0.0155749
1326	0.0185894
1338	0.024744
1350	0.0290145
1362	0.0389372
1374	0.058029
1386	0.0582803
1398	0.0342899
1410	0.0167053
1422	0.0165797
1434	0.0265024
1446	0.0825218
1458	0.120454
1470	0.0901837
1482	0.045343
1494	0.0178358
1506	0.0106763
1518	0.00967151
1530	0.00891788
1542	0.00703382
1554	0.00828986
1566	0.00753624
1578	0.00602899
1590	0.00803866
1602	0.00728503
1614	0.0064058
1626	0.00703382
1638	0.00590339
1650	0.00590339
1662	0.00678262
1674	0.0061546
1686	0.00665701
1698	0.00653141
1710	0.0062802
1722	0.00602899
1734	0.00527537
1746	0.00477295
1758	0.00565218
1770	0.00565218
1782	0.00464735
1794	0.00514976
1806	0.00514976
1818	0.00452174
1830	0.00477295
1842	0.00452174
1854	0.00489856
1866	0.00464735
1878	0.00439614
1890	0.00464735
1902	0.00477295
1914	0.00401933
1926	0.00477295
1938	0.00452174
1950	0.00427054
1962	0.00427054
1974	0.00389372
1986	0.00389372
1998	0.00414493
2010	0.00364252
2022	0.00364252
2034	0.00351691
2046	0.0031401
2058	0.0031401
2070	0.00238648
2082	0.00351691
2094	0.00414493
2106	0.00452174
2118	0.00376812
2130	0.00389372
2142	0.00401933
2154	0.00401933
2166	0.00452174
2178	0.00427054
2190	0.00364252
2202	0.00439614
2214	0.00351691
2226	0.0030145
2238	0.0031401
2250	0.00276329
2262	0.00251208
2274	0.00276329
2286	0.00213527
2298	0.00276329
2310	0.0031401
2322	0.00276329
2334	0.00339131
2346	0.0030145
2358	0.0030145
2370	0.00150725
2382	0.00276329
2394	0.00238648
2406	0.00226087
2418	0.00188406
2430	0.00150725
2442	0.00175846
2454	0.00100483
2466	0.000502416
2478	0.00188406
2490	0.00188406
2502	0.00113044
2514	0.00138164
2526	0.00163285
2538	0.00188406
2550	0.00226087
2562	0.00351691
2574	0.00489856
2586	0.0062802
2598	0.00715943
2610	0.00828986
2622	0.0095459
2634	0.00979711
2646	0.0116812
2658	0.0173334
2670	0.017459
2682	0.0129372
2694	0.0109275
2706	0.0105507
2718	0.01143
2730	0.0113044
2742	0.0101739
2754	0.00879228
2766	0.0095459
2778	0.0131884
2790	0.0182126
2802	0.0239904
2814	0.026628
2826	0.0371788
2838	0.0864156
2850	0.250203
2862	0.409343
2874	0.30371
2886	0.248445
2898	0.327952
2910	0.55429
2922	0.841296
2934	1.25604
2946	0.785402
2958	0.4783
2970	0.487344
2982	0.124222
2994	0.0384348
3006	0.0236136
3018	0.0159517
3030	0.0110532
3042	0.0102995
3054	0.00828986
3066	0.00766184
3078	0.0064058
3090	0.00766184
3102	0.00565218
3114	0.00414493
3126	0.00427054
3138	0.00439614
3150	0.00514976
3162	0.00590339
3174	0.00678262
3186	0.00489856
3198	0.00477295
3210	0.00213527
3222	0.00113044
3234	0.00226087
3246	0.00138164
3258	0.00263768
3270	0.00376812
3282	0.00276329
3294	0.00251208
3306	0.00200966
3318	0.0032657
3330	0.00226087
3342	0.00213527
3354	0.00263768
3366	0.00439614
3378	0.00489856
3390	0.00527537
3402	0.00163285
3414	0.00263768
3426	0.0031401
3438	0.00150725
3450	0.00213527
3462	0.00100483
3474	0.00213527
3486	0.00263768
3498	0.00288889
3510	0.0031401
3522	0.00175846
3534	0.00175846
3546	0.0030145
3558	0.00427054
3570	0.00439614
3582	0.0030145
3594	0.00113044
3606	0.00389372
3618	0.00251208
3630	0.00477295
3642	0.00339131
3654	0.00514976
3666	0.0030145
3678	0.00188406
3690	0.00502416
3702	0.00288889
3714	0.00552658
3726	0.00427054
3738	0.0032657
3750	0.00565218
3762	0.00263768
3774	0.0062802
3786	0.00602899
3798	0.00602899
3810	0.00590339
3822	0.0061546
3834	0.00678262
3846	0.00427054
3858	0.00427054
3870	0.00464735
3882	0.00715943
3894	0.00477295
3906	0.00427054
3918	0.00401933
3930	0.00339131
3942	0.00263768
3954	0.00251208
3966	0.00364252
