Infrared Spectrum: Cyclopentene, octachloro-
Formula: C 5 Cl 8
CAS: 706-78-5
Origin: Sadtler Research Labs Under US-EPA Contract
1/CM	ABSORBANCE
450	0
462	0.0469
474	0.0272752
486	0.0447379
498	0.0437401
510	0.0435737
522	0.0242816
534	0.0337613
546	0.0360897
558	0.0515567
570	0.0444053
582	0.0402475
594	0.0583755
606	0.102947
618	0.0874801
630	0.0583755
642	0.054883
654	0.0628659
666	0.0610365
678	0.075672
690	0.0789982
702	0.0741752
714	0.0801624
726	0.0507252
738	0.0716805
750	0.0821581
762	0.0864822
774	0.0929684
786	0.1565
798	0.312334
810	0.622838
822	0.659593
834	0.319319
846	0.208389
858	0.143694
870	0.111263
882	0.0971262
894	0.0798298
906	0.0705163
918	0.065028
930	0.0633649
942	0.0590408
954	0.0607039
966	0.0620344
978	0.0713478
990	0.12041
1002	0.35175
1014	1.08219
1026	1.66312
1038	0.942324
1050	0.333622
1062	0.302854
1074	0.356906
1086	0.410292
1098	0.328466
1110	0.215208
1122	0.143694
1134	0.100619
1146	0.077834
1158	0.0580429
1170	0.046401
1182	0.0384181
1194	0.0339276
1206	0.034094
1218	0.0379191
1230	0.0452369
1242	0.0715142
1254	0.202901
1266	0.529704
1278	0.184107
1290	0.0645291
1302	0.0493947
1314	0.0384181
1326	0.0332624
1338	0.030934
1350	0.0299362
1362	0.0301025
1374	0.0292709
1386	0.0315993
1398	0.0390833
1410	0.0439064
1422	0.0369213
1434	0.0342603
1446	0.0332624
1458	0.0312667
1470	0.0284394
1482	0.0307677
1494	0.0279404
1506	0.025612
1518	0.0227847
1530	0.0297698
1542	0.0284394
1554	0.0337613
1566	0.0324308
1578	0.0297698
1590	0.033595
1602	0.0349255
1614	0.0357571
1626	0.0350918
1638	0.0292709
1650	0.020789
1662	0.0301025
1674	0.0242816
1686	0.0221195
1698	0.0242816
1710	0.0276078
1722	0.0274415
1734	0.0297698
1746	0.0301025
1758	0.0307677
1770	0.0289383
1782	0.0317656
1794	0.0304351
1806	0.0312667
1818	0.0319319
1830	0.0292709
1842	0.0325972
1854	0.0307677
1866	0.0304351
1878	0.030934
1890	0.0306014
1902	0.0302688
1914	0.0311003
1926	0.0311003
1938	0.0315993
1950	0.031433
1962	0.0315993
1974	0.0302688
1986	0.0292709
1998	0.0302688
2010	0.0284394
2022	0.028772
2034	0.0276078
2046	0.0284394
2058	0.0292709
2070	0.0289383
2082	0.0297698
2094	0.028772
2106	0.0284394
2118	0.028273
2130	0.028772
2142	0.0289383
2154	0.030934
2166	0.0302688
2178	0.0292709
2190	0.0299362
2202	0.0277741
2214	0.0269425
2226	0.0271089
2238	0.0269425
2250	0.0269425
2262	0.0264436
2274	0.0276078
2286	0.0276078
2298	0.0306014
2310	0.0325972
2322	0.0306014
2334	0.0277741
2346	0.0296035
2358	0.0302688
2370	0.0297698
2382	0.0284394
2394	0.026111
2406	0.0251131
2418	0.0252794
2430	0.025612
2442	0.0251131
2454	0.0246142
2466	0.0249468
2478	0.0244479
2490	0.0239489
2502	0.02345
2514	0.0229511
2526	0.0231174
2538	0.0209553
2550	0.0219532
2562	0.0244479
2574	0.0242816
2586	0.0237826
2598	0.0241152
2610	0.0232837
2622	0.0239489
2634	0.0241152
2646	0.0246142
2658	0.0237826
2670	0.0244479
2682	0.026111
2694	0.0239489
2706	0.025612
2718	0.0244479
2730	0.0284394
2742	0.0247805
2754	0.028273
2766	0.0264436
2778	0.031433
2790	0.0262773
2802	0.0315993
2814	0.0269425
2826	0.0312667
2838	0.0277741
2850	0.0299362
2862	0.0312667
2874	0.0329298
2886	0.0347592
2898	0.0405801
2910	0.0512241
2922	0.0437401
2934	0.0382518
2946	0.0493947
2958	0.0848191
2970	0.197412
2982	0.102781
2994	0.041578
3006	0.0332624
3018	0.0377528
3030	0.0332624
3042	0.0334287
3054	0.0325972
3066	0.0337613
3078	0.0334287
3090	0.0319319
3102	0.0299362
3114	0.0296035
3126	0.0271089
3138	0.0247805
3150	0.0246142
3162	0.0236163
3174	0.0237826
3186	0.02345
3198	0.0217869
3210	0.0226184
3222	0.0222858
3234	0.0224521
3246	0.0231174
3258	0.0226184
3270	0.0239489
3282	0.02345
3294	0.0241152
3306	0.0236163
3318	0.0239489
3330	0.02345
3342	0.02345
3354	0.0229511
3366	0.0229511
3378	0.0231174
3390	0.0229511
3402	0.0232837
3414	0.02345
3426	0.02345
3438	0.0222858
3450	0.0232837
3462	0.02345
3474	0.0242816
3486	0.0236163
3498	0.0226184
3510	0.0237826
3522	0.0229511
3534	0.0229511
3546	0.0227847
3558	0.0271089
3570	0.0257784
3582	0.0257784
3594	0.0266099
3606	0.0254457
3618	0.0251131
3630	0.0236163
3642	0.0274415
3654	0.025612
3666	0.0259447
3678	0.026111
3690	0.0251131
3702	0.026111
3714	0.0252794
3726	0.0294372
3738	0.0279404
3750	0.0229511
3762	0.026111
3774	0.0276078
3786	0.0269425
3798	0.0257784
3810	0.0227847
3822	0.0239489
3834	0.0267762
3846	0.0236163
3858	0.0294372
3870	0.0267762
3882	0.0252794
3894	0.0274415
3906	0.0237826
3918	0.0247805
3930	0.0229511
3942	0.0299362
3954	0.0231174
3966	0.0241152
