Infrared Spectrum: Propanoic acid, 2-(4-chloro-2-methylphenoxy)-, (.+/-.)-
Formula: C 10 H 11 Cl O 3
CAS: 7085-19-0
Origin: Sadtler Research Labs Under US-EPA Contract
1/CM	ABSORBANCE
450	0.0340317
462	0.0277664
474	0.0369745
486	0.0387306
498	0.0420531
510	0.042243
522	0.0465147
534	0.0550582
546	0.0740913
558	0.101003
570	0.104943
582	0.101098
594	0.0881881
606	0.0776511
618	0.0683007
630	0.0463723
642	0.0354556
654	0.051356
666	0.0990099
678	0.025061
690	0.011249
702	0.0100149
714	0.0089707
726	0.00868591
738	0.0179889
750	0.0206943
762	0.0257255
774	0.0506441
786	0.0567195
798	0.0697246
810	0.0645036
822	0.0298074
834	0.0190805
846	0.0112964
858	0.0137171
870	0.0827298
882	0.0947381
894	0.0107269
906	0.00284784
918	0.000617032
930	0.00484133
942	0.0105845
954	0.00598046
966	0.00431922
978	0.0089707
990	0.01984
1002	0.0267697
1014	0.0393002
1026	0.0787428
1038	0.0978708
1050	0.0894696
1062	0.0967316
1074	0.164463
1086	0.293945
1098	0.390581
1110	0.269548
1122	0.249993
1134	0.286445
1146	0.197877
1158	0.171962
1170	0.206421
1182	0.390202
1194	0.255546
1206	0.0715757
1218	0.0829671
1230	0.237462
1242	0.443266
1254	0.146379
1266	0.09227
1278	0.114056
1290	0.103946
1302	0.0667818
1314	0.0651681
1326	0.0852453
1338	0.0910834
1350	0.0808312
1362	0.078458
1374	0.0835366
1386	0.0958298
1398	0.0860522
1410	0.0468944
1422	0.0254407
1434	0.0291904
1446	0.0436669
1458	0.0653579
1470	0.12203
1482	0.350284
1494	0.437476
1506	0.114768
1518	0.0426227
1530	0.0196976
1542	0.0155207
1554	0.00911309
1566	0.00887577
1578	0.0149986
1590	0.0241117
1602	0.0308991
1614	0.0212639
1626	0.0152359
1638	0.0129102
1650	0.0115812
1662	0.00621778
1674	0.00560075
1686	0.00730946
1698	0.00787902
1710	0.0114388
1722	0.0220708
1734	0.0403919
1746	0.0798819
1758	0.136886
1770	0.241734
1782	0.315778
1794	0.306095
1806	0.313405
1818	0.12839
1830	0.04941
1842	0.030282
1854	0.0174193
1866	0.00935041
1878	0.0064551
1890	0.00398698
1902	0.00261052
1914	0.00246813
1926	0.000996744
1938	0.00151885
1950	0.00194602
1962	0.00151885
1974	0.00151885
1986	0.00142392
1998	0.00189856
2010	0.0035598
2022	0.00313262
2034	0.00151885
2046	0.00128153
2058	0.00104421
2070	0.000569568
2082	0.000427176
2094	0.000379712
2106	0.000332248
2118	0.00109167
2130	0.000569568
2142	0.000379712
2154	0.000617032
2166	0.000332248
2178	0.000617032
2190	0.00113914
2202	0.000996744
2214	0.00113914
2226	0.000901816
2238	0.00104421
2250	0.00199349
2262	0.00223081
2274	0.00189856
2286	0.0023732
2298	0.00322755
2310	0.00398698
2322	0.00351234
2334	0.00189856
2346	0.00294277
2358	0.00346487
2370	0.0018511
2382	0.00370219
2394	0.00189856
2406	0.00161378
2418	0.00223081
2430	0.00142392
2442	0.00113914
2454	0.00208842
2466	0.00332248
2478	0.0035598
2490	0.00294277
2502	0.00194602
2514	0.00246813
2526	0.00265798
2538	0.00199349
2550	0.00094928
2562	0.000901816
2574	0.000617032
2586	0.00047464
2598	0.000379712
2610	0.000427176
2622	0.00071196
2634	0.000806888
2646	0.000284784
2658	0.00104421
2670	0.00123406
2682	0.00094928
2694	0.00109167
2706	0.00071196
2718	0.00071196
2730	0.00094928
2742	0.00194602
2754	0.00213588
2766	0.00199349
2778	0.0018511
2790	0.00189856
2802	0.00213588
2814	0.00280038
2826	0.00427176
2838	0.00683482
2850	0.00863845
2862	0.0134323
2874	0.0192704
2886	0.0225454
2898	0.0225454
2910	0.0261527
2922	0.0379237
2934	0.0623202
2946	0.0713384
2958	0.0458977
2970	0.0338893
2982	0.0355505
2994	0.0609438
3006	0.0655952
3018	0.0210266
3030	0.0172769
3042	0.0209316
3054	0.0147613
3066	0.0145714
3078	0.013907
3090	0.0132425
3102	0.0124356
3114	0.0083062
3126	0.00436669
3138	0.00327502
3150	0.00256306
3162	0.00204095
3174	0.00204095
3186	0.00175617
3198	0.00175617
3210	0.00147138
3222	0.00189856
3234	0.00180363
3246	0.00156631
3258	0.0011866
3270	0.00142392
3282	0.00132899
3294	0.00132899
3306	0.00166124
3318	0.000996744
3330	0.000569568
3342	0.000806888
3354	0.000332248
3366	0.0017087
3378	0.000759424
3390	0.000189856
3402	0.00113914
3414	0.00166124
3426	0.00180363
3438	0.00175617
3450	0.00246813
3462	0.00327502
3474	0.00531597
3486	0.00963519
3498	0.023732
3510	0.0400596
3522	0.0350284
3534	0.027719
3546	0.0233523
3558	0.0367846
3570	0.178797
3582	0.117521
3594	0.0247762
3606	0.0065975
3618	0.00351234
3630	0.00522104
3642	0.00859098
3654	0.0094928
3666	0.0030377
3678	0.00417683
3690	0.00256306
3702	0.00275291
3714	0.00374966
3726	0.00341741
3738	0.0035598
3750	0.0047464
3762	0.00246813
3774	0.00223081
3786	0.00265798
3798	0.00199349
3810	0.00227827
3822	0.00398698
3834	0.00365473
3846	0.00232574
3858	0.00299023
3870	0.00336994
3882	0.0030377
3894	0.00223081
3906	0.00341741
3918	0.00280038
3930	0.00246813
3942	0.00318009
3954	0.00261052
3966	0.00322755
