Infrared Spectrum: 1-Pentanone, 1-(4-fluorophenyl)-
Formula: C 11 H 13 F O
CAS: 709-24-0
Origin: Sadtler Research Labs Under US-EPA Contract
1/CM	ABSORBANCE
450	0.0446977
462	0.0107023
474	0.0195159
486	0.0218542
498	0.0493743
510	0.0391217
522	0.0238328
534	0.0384922
546	0.0360639
558	0.0674513
570	0.084359
582	0.116196
594	0.0846288
606	0.0647532
618	0.0287792
630	0.0210448
642	0.0250919
654	0.0215844
666	0.0189763
678	0.0205951
690	0.0187065
702	0.0214945
714	0.0160984
726	0.016638
738	0.0309376
750	0.0405607
762	0.0482951
774	0.0375928
786	0.0352545
798	0.0485649
810	0.108282
822	0.126359
834	0.225827
846	0.263959
858	0.0932626
870	0.0411003
882	0.0382224
894	0.0245523
906	0.016548
918	0.0149292
930	0.0196058
942	0.0340854
954	0.062235
966	0.0939821
978	0.0732071
990	0.0438883
1002	0.0826503
1014	0.199836
1026	0.0681707
1038	0.0231133
1050	0.0189763
1062	0.0250919
1074	0.0300383
1086	0.0375029
1098	0.0542308
1110	0.0549503
1122	0.0302182
1134	0.0277899
1146	0.0570188
1158	0.488707
1170	0.0607061
1182	0.0848986
1194	0.171956
1206	0.34607
1218	0.277449
1230	0.340314
1242	0.89935
1254	0.378446
1266	0.281856
1278	0.180949
1290	0.137601
1302	0.127348
1314	0.132025
1326	0.121232
1338	0.108012
1350	0.140838
1362	0.13805
1374	0.0813012
1386	0.0607961
1398	0.058098
1410	0.136611
1422	0.0725775
1434	0.052612
1446	0.0862477
1458	0.0970399
1470	0.0875068
1482	0.0686204
1494	0.113768
1506	0.305689
1518	0.156037
1530	0.0289591
1542	0.0188863
1554	0.0225737
1566	0.0315672
1578	0.0679909
1590	0.239677
1602	0.694928
1614	0.259642
1626	0.0682607
1638	0.0298584
1650	0.031837
1662	0.0437983
1674	0.0514428
1686	0.156577
1698	0.600046
1710	0.528008
1722	0.102616
1734	0.0314772
1746	0.0224838
1758	0.0268906
1770	0.0237428
1782	0.0196958
1794	0.0116916
1806	0.00881363
1818	0.00674513
1830	0.00458669
1842	0.0033276
1854	0.00449675
1866	0.0056659
1878	0.00863376
1890	0.0100727
1902	0.00917337
1914	0.00737467
1926	0.00737467
1938	0.00791428
1950	0.00422695
1962	0.00413701
1974	0.00440681
1986	0.00341753
1998	0.00278798
2010	0.00197857
2022	0.00287792
2034	0.00521623
2046	0.00485649
2058	0.00683506
2070	0.00836395
2082	0.00440681
2094	0.00134903
2106	0.00143896
2118	0.00035974
2130	0.000449675
2142	0.000629545
2154	0.000269805
2166	0.000809415
2178	0.000989285
2190	0.00116916
2202	0.00125909
2214	0.00107922
2226	0.00161883
2238	0.0017987
2250	0.00233831
2262	0.00314773
2274	0.00242824
2286	0.00296786
2298	0.00521623
2310	0.00773441
2322	0.00521623
2334	0.00134903
2346	0.000269805
2358	0.00350746
2370	0.00017987
2382	0.00296786
2394	0.0056659
2406	0.00665519
2418	0.00674513
2430	0.00611558
2442	0.00584578
2454	0.00467662
2466	0.00530616
2478	0.00746461
2490	0.00413701
2502	0.00233831
2514	0.00305779
2526	0.00440681
2538	0.00422695
2550	0.0053961
2562	0.00602564
2574	0.00827402
2586	0.0115117
2598	0.00782434
2610	0.00548604
2622	0.0035974
2634	0.00296786
2646	0.00458669
2658	0.00404707
2670	0.00620551
2682	0.00881363
2694	0.00818409
2706	0.00665519
2718	0.00665519
2730	0.00737467
2742	0.0102526
2754	0.0115117
2766	0.00863376
2778	0.0102526
2790	0.0130406
2802	0.0151091
2814	0.019426
2826	0.0232932
2838	0.0268906
2850	0.0384922
2862	0.0806717
2874	0.153519
2886	0.184996
2898	0.136791
2910	0.148123
2922	0.184726
2934	0.26324
2946	0.328263
2958	0.286533
2970	0.454262
2982	0.225557
2994	0.0754555
3006	0.0413701
3018	0.0285094
3030	0.0260812
3042	0.023563
3054	0.0350746
3066	0.0426292
3078	0.0471259
3090	0.0412802
3102	0.0212247
3114	0.019426
3126	0.0144795
3138	0.00845389
3150	0.00764447
3162	0.00575584
3174	0.00575584
3186	0.00584578
3198	0.00800422
3210	0.00377727
3222	0.00314773
3234	0.0033276
3246	0.00314773
3258	0.00134903
3270	0.00296786
3282	0.00494642
3294	0.0053961
3306	0.00503636
3318	0.00530616
3330	0.00440681
3342	0.00494642
3354	0.00710487
3366	0.00845389
3378	0.0134903
3390	0.0143896
3402	0.00953311
3414	0.00701493
3426	0.00476655
3438	0.0056659
3450	0.00368733
3462	0.00377727
3474	0.00467662
3486	0.00413701
3498	0.00467662
3510	0.00341753
3522	0.00296786
3534	0.0038672
3546	0.00476655
3558	0.0035974
3570	0.00647532
3582	0.0071948
3594	0.00413701
3606	0.0038672
3618	0.00215844
3630	0.00161883
3642	0.00287792
3654	0.00341753
3666	0.0020685
3678	0.0033276
3690	0.00287792
3702	0.00233831
3714	0.00485649
3726	0.00413701
3738	0.00197857
3750	0.00233831
3762	0.00134903
3774	0.0017987
3786	0.00197857
3798	0.00170876
3810	0.00350746
3822	0.00215844
3834	0.00350746
3846	0.0017987
3858	0.00395714
3870	0.00089935
3882	0.00197857
3894	0.00116916
3906	0.00125909
3918	0.00350746
3930	0.00350746
3942	0.00017987
3954	0.00053961
3966	0.0020685
