Infrared Spectrum: 2H-Pyran-2-one, 6-hexyltetrahydro-
Formula: C 11 H 20 O 2
CAS: 710-04-3
Origin: Sadtler Research Labs Under US-EPA Contract
1/CM	ABSORBANCE
450	0.0148819
462	0.0208802
474	0.00933914
486	0.00250562
498	0.0104021
510	0.00971878
522	0.0130596
534	0.0230821
546	0.0318898
558	0.011617
570	0.0246766
582	0.0230821
594	0.0273341
606	0.0204246
618	0.0177672
630	0.0204246
642	0.0206524
654	0.0261192
666	0.0201209
678	0.0417604
690	0.02741
702	0.0269544
714	0.0359899
726	0.0312064
738	0.0318898
750	0.0363695
762	0.0356102
774	0.0252081
786	0.0227784
798	0.0201209
810	0.0264229
822	0.0323453
834	0.0310546
846	0.0366732
858	0.0395585
870	0.0290804
882	0.0381918
894	0.035838
906	0.0438105
918	0.0479865
930	0.0724353
942	0.0539848
954	0.0350028
966	0.0408493
978	0.0381159
990	0.0438105
1002	0.0552756
1014	0.0577812
1026	0.0823819
1038	0.16279
1050	0.219432
1062	0.174862
1074	0.143884
1086	0.124294
1098	0.0882283
1110	0.101744
1122	0.106375
1134	0.102351
1146	0.126876
1158	0.16408
1170	0.144567
1182	0.116246
1194	0.0924803
1206	0.100832
1218	0.16689
1230	0.36491
1242	0.276833
1254	0.118144
1266	0.0744854
1278	0.0540607
1290	0.0507199
1302	0.0460883
1314	0.0545922
1326	0.079117
1338	0.0964286
1350	0.0878487
1362	0.0729668
1374	0.0755484
1386	0.0795725
1398	0.0507199
1410	0.0363695
1422	0.0428234
1434	0.0478346
1446	0.0623369
1458	0.0850394
1470	0.0815467
1482	0.0461642
1494	0.0349269
1506	0.0386474
1518	0.0325731
1530	0.0255118
1542	0.037964
1554	0.0254359
1566	0.0255877
1578	0.0264989
1590	0.0219432
1602	0.0233099
1614	0.0192857
1626	0.0228543
1638	0.0300675
1650	0.0277137
1662	0.0249803
1674	0.0285489
1686	0.0372806
1698	0.0357621
1710	0.0303712
1722	0.0388751
1734	0.0656018
1746	0.0911895
1758	0.240464
1770	0.671507
1782	0.599148
1794	0.205613
1806	0.0805596
1818	0.0478346
1830	0.0359139
1842	0.0255118
1854	0.0230062
1866	0.0183746
1878	0.0177672
1890	0.016856
1902	0.0149578
1914	0.0138189
1926	0.0145022
1938	0.014806
1950	0.0140467
1962	0.0129837
1974	0.0143504
1986	0.0133633
1998	0.0129837
2010	0.0127559
2022	0.0123003
2034	0.0113133
2046	0.0114651
2058	0.0120726
2070	0.0110096
2082	0.00987064
2094	0.010554
2106	0.0104021
2118	0.00987064
2130	0.00994657
2142	0.00820022
2154	0.00933914
2166	0.00964286
2178	0.00911136
2190	0.00941507
2202	0.00873172
2214	0.00888358
2226	0.00979471
2238	0.00971878
2250	0.00751687
2262	0.0081243
2274	0.00873172
2286	0.00782058
2298	0.0118448
2310	0.0164004
2322	0.021108
2334	0.0233099
2346	0.0207283
2358	0.0217913
2370	0.0176153
2382	0.00933914
2394	0.00698538
2406	0.00584646
2418	0.00577053
2430	0.00440382
2442	0.00485939
2454	0.00592238
2466	0.00372047
2478	0.00349269
2490	0.00493532
2502	0.00341676
2514	0.0032649
2526	0.00463161
2538	0.00220191
2550	0.00356862
2562	0.00508718
2574	0.00417604
2586	0.00410011
2598	0.00592238
2610	0.00394826
2622	0.00364454
2634	0.00539089
2646	0.00554274
2658	0.00470754
2670	0.00766873
2682	0.0070613
2694	0.00630202
2706	0.00554274
2718	0.00789651
2730	0.00523903
2742	0.00842801
2754	0.00690945
2766	0.00736502
2778	0.0103262
2790	0.0114651
2802	0.0119966
2814	0.0166282
2826	0.0195135
2838	0.0286249
2850	0.0578571
2862	0.127255
2874	0.16074
2886	0.170307
2898	0.141606
2910	0.158841
2922	0.253144
2934	0.381007
2946	0.384879
2958	0.378046
2970	0.305382
2982	0.122244
2994	0.0551237
3006	0.0359899
3018	0.0222469
3030	0.0156412
3042	0.0151856
3054	0.0129078
3066	0.00926322
3078	0.009491
3090	0.00903543
3102	0.0075928
3114	0.00865579
3126	0.00713723
3138	0.00470754
3150	0.0062261
3162	0.00607424
3174	0.0051631
3186	0.00447975
3198	0.00751687
3210	0.00493532
3222	0.00478346
3234	0.0056946
3246	0.00273341
3258	0.00455568
3270	0.0056946
3282	0.00205006
3294	0.00546682
3306	0.00531496
3318	0.00113892
3330	0.00478346
3342	0.00356862
3354	0.00273341
3366	0.00303712
3378	0.0062261
3390	0.0043279
3402	0.00584646
3414	0.00637795
3426	0.00607424
3438	0.00144263
3450	0.0070613
3462	0.0024297
3474	0.00577053
3486	0.00485939
3498	0.00592238
3510	0.0100984
3522	0.0118448
3534	0.0120726
3546	0.00941507
3558	0.00933914
3570	0.00964286
3582	0.00493532
3594	0.00873172
3606	0.00728909
3618	0.0101744
3630	0.0153375
3642	0.00683352
3654	0.00804837
3666	0.00744094
3678	0.0123003
3690	0.0100984
3702	0.00652981
3714	0.00766873
3726	0.00888358
3738	0.0166282
3750	0.012604
3762	0.00713723
3774	0.00592238
3786	0.00645388
3798	0.00820022
3810	0.00941507
3822	0.00911136
3834	0.010554
3846	0.01268
3858	0.00918729
3870	0.00926322
3882	0.00751687
3894	0.00599831
3906	0.00857986
3918	0.00698538
3930	0.00607424
3942	0.00842801
3954	0
3966	0.00075928
