Infrared Spectrum: Butyric acid, 4-ethylthio-,
Formula: C 6 H 12 O 2 S
CAS: 71057-15-3
Origin: Sadtler Research Labs Under US-EPA Contract
1/CM	ABSORBANCE
450	0.0376717
462	0.0211526
474	0.0229656
486	0.034247
498	0.0406264
510	0.0494903
522	0.0472072
534	0.0500275
546	0.0604359
558	0.0807827
570	0.0766864
582	0.0781638
594	0.0955559
606	0.107173
618	0.108919
630	0.112747
642	0.0829315
654	0.0532507
666	0.0445883
678	0.0338441
690	0.0267932
702	0.0237043
714	0.0225627
726	0.0224956
738	0.0228985
750	0.0236372
762	0.0266589
774	0.0260546
786	0.0209511
798	0.0136988
810	0.00899823
822	0.00752091
834	0.00550638
846	0.0069837
858	0.00705085
870	0.00960259
882	0.0149075
894	0.00940114
906	0.00456627
918	0.00228313
930	0.00235028
942	0.00483487
954	0.0126244
966	0.0265918
978	0.0339113
990	0.0267261
1002	0.026256
1014	0.0312252
1026	0.0339784
1038	0.0384775
1050	0.0473415
1062	0.0643307
1074	0.0819242
1086	0.10959
1098	0.188963
1110	0.434803
1122	0.536201
1134	0.283512
1146	0.173115
1158	0.151694
1170	0.156328
1182	0.138868
1194	0.121476
1206	0.100726
1218	0.0752091
1230	0.0651365
1242	0.0723216
1254	0.107576
1266	0.11832
1278	0.0825286
1290	0.0658751
1302	0.0628533
1314	0.0501618
1326	0.0448569
1338	0.0523778
1350	0.0583542
1362	0.0676211
1374	0.103614
1386	0.136115
1398	0.0966974
1410	0.0524449
1422	0.060033
1434	0.0678225
1446	0.0714487
1458	0.0670838
1470	0.0366644
1482	0.0165863
1494	0.00785667
1506	0.00637934
1518	0.00443197
1530	0.00114157
1542	0.00335755
1554	6.7151e-05
1566	0.00114157
1578	0.000335755
1590	0.000872963
1602	0.00127587
1614	0.00282034
1626	0.00181308
1638	0.00429766
1650	0.0036933
1662	0.00389476
1674	0.00731946
1686	0.00799097
1698	0.0110128
1710	0.0217569
1722	0.0406935
1734	0.0770222
1746	0.145449
1758	0.269007
1770	0.54305
1782	0.67151
1794	0.379403
1806	0.183457
1818	0.0762835
1830	0.0312252
1842	0.0150418
1854	0.00872963
1866	0.00637934
1878	0.00449912
1890	0.00389476
1902	0.0036933
1914	0.0031561
1926	0.00322325
1938	0.00335755
1950	0.00282034
1962	0.00302179
1974	0.00235028
1986	0.00221598
1998	0.00295464
2010	0.00261889
2022	0.00248459
2034	0.00201453
2046	0.00201453
2058	0.00208168
2070	0.00221598
2082	0.00181308
2094	0.00208168
2106	0.00194738
2118	0.00188023
2130	0.00181308
2142	0.00208168
2154	0.00208168
2166	0.00235028
2178	0.00235028
2190	0.00248459
2202	0.00295464
2214	0.00302179
2226	0.00409621
2238	0.00449912
2250	0.00362615
2262	0.0031561
2274	0.00308895
2286	0.00295464
2298	0.0031561
2310	0.00396191
2322	0.00416336
2334	0.00409621
2346	0.00557353
2358	0.00423051
2370	0.00449912
2382	0.00335755
2394	0.00255174
2406	0.00335755
2418	0.00322325
2430	0.00335755
2442	0.00302179
2454	0.00255174
2466	0.00255174
2478	0.00282034
2490	0.00241744
2502	0.00261889
2514	0.00235028
2526	0.00228313
2538	0.00181308
2550	0.00221598
2562	0.00214883
2574	0.00235028
2586	0.00181308
2598	0.00201453
2610	0.00221598
2622	0.00241744
2634	0.00248459
2646	0.00255174
2658	0.00295464
2670	0.0032904
2682	0.00382761
2694	0.00470057
2706	0.00510348
2718	0.00456627
2730	0.00470057
2742	0.00537208
2754	0.00429766
2766	0.00396191
2778	0.00463342
2790	0.00590929
2802	0.00725231
2814	0.00953544
2826	0.0159148
2838	0.0263232
2850	0.0355229
2862	0.0468714
2874	0.0618461
2886	0.0783652
2898	0.0703742
2910	0.0881021
2922	0.148404
2934	0.218577
2946	0.230999
2958	0.17607
2970	0.193261
2982	0.177547
2994	0.0930713
3006	0.0405592
3018	0.0241072
3030	0.0170564
3042	0.0134974
3054	0.0108785
3066	0.00926684
3078	0.00839387
3090	0.00752091
3102	0.00725231
3114	0.00691655
3126	0.0065808
3138	0.00691655
3150	0.00590929
3162	0.00631219
3174	0.00617789
3186	0.00590929
3198	0.00570783
3210	0.00577499
3222	0.00490202
3234	0.00436481
3246	0.00443197
3258	0.00389476
3270	0.00382761
3282	0.0036933
3294	0.003559
3306	0.00389476
3318	0.003559
3330	0.0036933
3342	0.0036933
3354	0.00335755
3366	0.00335755
3378	0.00288749
3390	0.00248459
3402	0.00295464
3414	0.00282034
3426	0.00275319
3438	0.00322325
3450	0.00268604
3462	0.0034247
3474	0.00268604
3486	0.00288749
3498	0.0036933
3510	0.00523778
3522	0.0068494
3534	0.0100726
3546	0.0156462
3558	0.0281363
3570	0.175734
3582	0.274648
3594	0.0423051
3606	0.0134302
3618	0.00906538
3630	0.00872963
3642	0.00268604
3654	0.00550638
3666	0.0068494
3678	0.00248459
3690	0.00611074
3702	0.00463342
3714	0.0067151
3726	0.00705085
3738	0.00738661
3750	0.0101398
3762	0.00503632
3774	0.00288749
3786	0.00436481
3798	0.0034247
3810	0.00577499
3822	0.00449912
3834	0.00557353
3846	0.00275319
3858	0.00496917
3870	0.00725231
3882	0.00570783
3894	0.00248459
3906	0.00866248
3918	0.00564068
3930	0.00463342
3942	0.00530493
3954	0.00510348
3966	0.00416336
