Infrared Spectrum: 3-Pyridinemethanol, .alpha.,2,4,6-tetramethyl-,
Formula: C 10 H 15 N O
CAS: 71173-18-7
Origin: Sadtler Research Labs Under US-EPA Contract
1/CM	ABSORBANCE
450	0.0037941
462	0.0338351
474	0.0321719
486	0.0133573
498	0.00706846
510	0.00831584
522	0.0237001
534	0.0430864
546	0.0237521
558	0.00810794
570	0.0128376
582	0.015904
594	0.016008
606	0.0118501
618	0.00514543
630	0.00197501
642	0.00187106
654	0.00025987
666	0.00249475
678	0.00327436
690	0.0101349
702	0.0153323
714	0.0430345
726	0.0268186
738	0.00623688
750	0.00457371
762	0.00488556
774	0.00457371
786	0.00483358
798	0.00467766
810	0.00576911
822	0.00795202
834	0.0104987
846	0.041891
858	0.0854453
870	0.0482838
882	0.0903828
894	0.123334
906	0.067982
918	0.0747386
930	0.0433983
942	0.0254153
954	0.0335752
966	0.0316002
978	0.0383048
990	0.0678261
1002	0.0929815
1014	0.0997901
1026	0.0993223
1038	0.0805597
1050	0.0947486
1062	0.182065
1074	0.256959
1086	0.24355
1098	0.167616
1110	0.0743228
1122	0.0422029
1134	0.0482319
1146	0.0753103
1158	0.0948006
1170	0.0709445
1182	0.0474003
1194	0.0464648
1206	0.0582629
1218	0.0686577
1230	0.0655392
1242	0.0854972
1254	0.1435
1266	0.135184
1278	0.0753103
1290	0.0624727
1302	0.0732314
1314	0.0653833
1326	0.0728156
1338	0.109405
1350	0.127492
1362	0.139134
1374	0.207428
1386	0.216576
1398	0.161119
1410	0.120476
1422	0.10296
1434	0.121359
1446	0.172554
1458	0.223384
1470	0.199372
1482	0.135652
1494	0.103584
1506	0.0955802
1518	0.0997381
1530	0.11533
1542	0.159924
1554	0.225047
1566	0.231544
1578	0.257271
1590	0.508358
1602	0.3594
1614	0.079936
1626	0.0335752
1638	0.0218291
1650	0.0141889
1662	0.00930335
1674	0.00587306
1686	0.00566517
1698	0.00966716
1710	0.012006
1722	0.0066007
1734	0.00275462
1746	0.00161119
1758	0.00129935
1770	0.0011954
1782	0.0014033
1794	0.00155922
1806	0.00124738
1818	0.00077961
1830	0.000675662
1842	0.000363818
1854	0.00077961
1866	0.00145527
1878	0.00223488
1890	0.00291054
1902	0.0025987
1914	0.00254673
1926	0.00155922
1938	0.00161119
1950	0.0023908
1962	0.00296252
1974	0.00301449
1986	0.00244278
1998	0.00145527
2010	0.000571714
2022	0.000415792
2034	0.00025987
2046	0.000571714
2058	0.000311844
2070	0.000675662
2082	0.000935532
2094	0.00155922
2106	0.0014033
2118	0.00192304
2130	0.00218291
2142	0.00197501
2154	0.00176712
2166	0.00192304
2178	0.00166317
2190	0.000831584
2202	0.000571714
2214	0.000415792
2226	0.000363818
2238	0.000467766
2250	0.00025987
2262	0.000363818
2274	0.000467766
2286	0.000987506
2298	0.00213093
2310	0.00270265
2322	0.00213093
2334	0.00197501
2346	0.00275462
2358	0.00311844
2370	0.00467766
2382	0.00608096
2394	0.00566517
2406	0.00571714
2418	0.00514543
2430	0.004002
2442	0.00415792
2454	0.00384608
2466	0.00426187
2478	0.00374213
2490	0.00353423
2502	0.00296252
2514	0.00291054
2526	0.0025987
2538	0.00275462
2550	0.00244278
2562	0.00249475
2574	0.00228686
2586	0.00306647
2598	0.00343028
2610	0.00358621
2622	0.00395002
2634	0.00384608
2646	0.004002
2658	0.00405397
2670	0.00530135
2682	0.00602898
2694	0.00613293
2706	0.00649675
2718	0.00774413
2730	0.011902
2742	0.013929
2754	0.0113823
2766	0.0102389
2778	0.0110185
2790	0.0122659
2802	0.0145007
2814	0.0173593
2826	0.022037
2838	0.0296772
2850	0.0456332
2862	0.0738551
2874	0.100206
2886	0.108886
2898	0.111016
2910	0.131858
2922	0.206129
2934	0.353943
2946	0.345159
2958	0.25093
2970	0.258259
2982	0.30436
2994	0.256596
3006	0.174529
3018	0.125621
3030	0.122191
3042	0.113199
3054	0.0807156
3066	0.0557161
3078	0.0389285
3090	0.0304048
3102	0.0253113
3114	0.0206857
3126	0.0163198
3138	0.0128896
3150	0.0109665
3162	0.00883558
3174	0.00712044
3186	0.00514543
3198	0.004002
3210	0.00322239
3222	0.00218291
3234	0.00145527
3246	0.00129935
3258	0.000883558
3270	0.000727636
3282	0.000883558
3294	0.000311844
3306	0.00025987
3318	0.00077961
3330	0.000467766
3342	0.000467766
3354	0.000727636
3366	0.00161119
3378	0.00109145
3390	0.00249475
3402	0.00135132
3414	0.00265067
3426	0.00254673
3438	0.00275462
3450	0.00181909
3462	0.00202699
3474	0.00265067
3486	0.00207896
3498	0.00166317
3510	0.00129935
3522	0.00135132
3534	0.0014033
3546	0.00176712
3558	0.00213093
3570	0.00550924
3582	0.00623688
3594	0.0037941
3606	0.00223488
3618	0.00337831
3630	0.00945927
3642	0.0533773
3654	0.103376
3666	0.0353943
3678	0.00556122
3690	0.00228686
3702	0.00223488
3714	0.00135132
3726	0.00103948
3738	0.000155922
3750	0.000155922
3762	0.000155922
3774	0.000155922
3786	0.000935532
3798	0.000727636
3810	0.000155922
3822	0.00025987
3834	0.000155922
3846	0.00176712
3858	0.00166317
3870	0.00218291
3882	0.00124738
3894	0.00244278
3906	0.0014033
3918	0.00332634
3930	0.00285857
3942	0.00218291
3954	0.00291054
3966	0.00395002
