Infrared Spectrum: Acetamide, N-ethyl-N-(p-tolyl)-,
Formula: C 11 H 15 N O 3 S
CAS: 71173-13-2
Origin: Sadtler Research Labs Under US-EPA Contract
1/CM	ABSORBANCE
450	0.000397905
462	0.00238743
474	0.0147225
486	0.0251476
498	0.030957
510	0.0325486
522	0.0376418
534	0.0592878
546	0.148339
558	0.161788
570	0.147623
582	0.426156
594	0.165688
606	0.0636648
618	0.0338219
630	0.0491811
642	0.143962
654	0.123191
666	0.0741695
678	0.1824
690	0.439526
702	0.157172
714	0.0843559
726	0.0268984
738	0.0226806
750	0.0273759
762	0.057935
774	0.146031
786	0.0999537
798	0.0753632
810	0.121281
822	0.0612774
834	0.030002
846	0.0237151
858	0.0282513
870	0.0305591
882	0.0257047
894	0.0360502
906	0.0916773
918	0.135288
930	0.216779
942	0.303681
954	0.145952
966	0.0584125
978	0.0411434
990	0.0469528
1002	0.0470324
1014	0.0460774
1026	0.0463957
1038	0.0444858
1050	0.0481465
1062	0.0553088
1074	0.0873004
1086	0.189244
1098	0.227442
1110	0.0851517
1122	0.0661318
1134	0.0547517
1146	0.0808543
1158	0.26206
1170	0.404033
1182	0.440879
1194	0.258081
1206	0.132343
1218	0.179057
1230	0.32095
1242	0.431249
1254	0.242165
1266	0.106081
1278	0.0674051
1290	0.0474303
1302	0.0424963
1314	0.0551496
1326	0.100511
1338	0.101943
1350	0.136084
1362	0.348804
1374	0.79581
1386	0.363367
1398	0.120167
1410	0.086982
1422	0.0693946
1434	0.0619936
1446	0.0679622
1458	0.0593674
1470	0.0498177
1482	0.0354135
1494	0.0561842
1506	0.0369256
1518	0.0198157
1530	0.0168712
1542	0.014245
1554	0.0163141
1566	0.0175874
1578	0.0222827
1590	0.0339015
1602	0.0588899
1614	0.0307978
1626	0.0195769
1638	0.0228397
1650	0.0199748
1662	0.0203727
1674	0.0342994
1686	0.0446449
1698	0.0865841
1710	0.389629
1722	0.577281
1734	0.124863
1746	0.0482261
1758	0.0428942
1770	0.0316732
1782	0.023556
1794	0.0236356
1806	0.0177466
1818	0.0107434
1830	0.00732145
1842	0.00525235
1854	0.00596857
1866	0.00557067
1878	0.00612774
1890	0.00740103
1902	0.00947014
1914	0.0102659
1926	0.00660522
1938	0.00469528
1950	0.0033424
1962	0.00310366
1974	0.00326282
1986	0.00326282
1998	0.00350156
2010	0.00429737
2022	0.00405863
2034	0.00366073
2046	0.00254659
2058	0.00262617
2070	0.00278533
2082	0.00238743
2094	0.00262617
2106	0.00389947
2118	0.00374031
2130	0.00342198
2142	0.00342198
2154	0.00397905
2166	0.00541151
2178	0.00509318
2190	0.00389947
2202	0.00326282
2214	0.00278533
2226	0.00238743
2238	0.00262617
2250	0.00262617
2262	0.00318324
2274	0.00366073
2286	0.00389947
2298	0.00429737
2310	0.00374031
2322	0.00310366
2334	0.00254659
2346	0.00374031
2358	0.00350156
2370	0.0029445
2382	0.00358114
2394	0.00222827
2406	0.00270575
2418	0.00238743
2430	0.00143246
2442	0.00159162
2454	0.00183036
2466	0.00230785
2478	0.00222827
2490	0.0012733
2502	0.00135288
2514	0.00198952
2526	0.00214869
2538	0.00278533
2550	0.00278533
2562	0.00246701
2574	0.00286492
2586	0.00254659
2598	0.00246701
2610	0.00198952
2622	0.00175078
2634	0.000557067
2646	0.000397905
2658	7.9581e-05
2670	0.000477486
2682	0.00079581
2694	0.0012733
2706	0.000954972
2718	0.000954972
2730	0.00135288
2742	0.00230785
2754	0.00262617
2766	0.00198952
2778	0.00190994
2790	0.00278533
2802	0.00358114
2814	0.00445654
2826	0.00549109
2838	0.00708271
2850	0.0105843
2862	0.0163937
2874	0.0278533
2886	0.0413821
2898	0.0359706
2910	0.0327874
2922	0.0413025
2934	0.071225
2946	0.0996354
2958	0.0608795
2970	0.0559454
2982	0.0880962
2994	0.0812522
3006	0.0524439
3018	0.0439287
3030	0.0428146
3042	0.0459978
3054	0.0371643
3066	0.0282513
3078	0.024113
3090	0.0158366
3102	0.0112209
3114	0.00708271
3126	0.00525235
3138	0.00405863
3150	0.00374031
3162	0.00342198
3174	0.00254659
3186	0.00214869
3198	0.00143246
3210	0.00079581
3222	0.000875391
3234	0.000954972
3246	0.000716229
3258	0.000716229
3270	0.000159162
3282	0.00103455
3294	0.00111413
3306	0.000397905
3318	0.00135288
3330	0.000716229
3342	0.00135288
3354	0.00175078
3366	0.00238743
3378	0.00262617
3390	0.00302408
3402	0.00565025
3414	0.0101864
3426	0.00620732
3438	0.00222827
3450	0.00175078
3462	0.0016712
3474	0.0016712
3486	0.00103455
3498	0.0012733
3510	0.000875391
3522	0.0012733
3534	0.00151204
3546	0.00111413
3558	0.00198952
3570	0.00230785
3582	0.00262617
3594	0.00318324
3606	0.00206911
3618	0.00206911
3630	0.0016712
3642	0.00119371
3654	0.00111413
3666	0.00119371
3678	0.00262617
3690	0.0016712
3702	0.0012733
3714	0.00135288
3726	0.00183036
3738	0.00079581
3750	0.00222827
3762	0.000318324
3774	0.000318324
3786	0.000477486
3798	0.00079581
3810	0.00151204
3822	0.00238743
3834	0.00246701
3846	0.00183036
3858	0.0012733
3870	0.00397905
3882	0.00286492
3894	0.00230785
3906	0.00286492
3918	0.00286492
3930	0.00262617
3942	0.00111413
3954	0.00254659
3966	0.00230785
