Infrared Spectrum: Acetamide, N-butyl-N-(p-tolyl)-,
Formula: C 13 H 19 N O 3 S
CAS: 71173-14-3
Origin: Sadtler Research Labs Under US-EPA Contract
1/CM	ABSORBANCE
450	0.00324378
462	0.00204044
474	0.00774321
486	0.0101499
498	0.0136553
510	0.0133413
522	0.0176838
534	0.0448897
546	0.110969
558	0.0886807
570	0.0827687
582	0.277448
594	0.116933
606	0.0418552
618	0.0155387
630	0.0151202
642	0.0580741
654	0.133832
666	0.092343
678	0.0942265
690	0.122008
702	0.0852277
714	0.122688
726	0.0340073
738	0.0186256
750	0.0149109
762	0.00800481
774	0.0131321
786	0.0308159
798	0.0411227
810	0.0805713
822	0.0311298
834	0.013446
846	0.0140738
858	0.0185209
870	0.0255317
882	0.049703
894	0.110707
906	0.132053
918	0.0463023
930	0.025427
942	0.0470348
954	0.0598006
966	0.0371988
978	0.0441572
990	0.0572893
1002	0.0436864
1014	0.0304497
1026	0.0226018
1038	0.0226018
1050	0.0222879
1062	0.0251131
1074	0.047401
1086	0.127397
1098	0.140686
1110	0.0479765
1122	0.0415936
1134	0.0324378
1146	0.054621
1158	0.136971
1170	0.327622
1182	0.291783
1194	0.0874774
1206	0.0776414
1218	0.124624
1230	0.227483
1242	0.225181
1254	0.137861
1266	0.0733512
1278	0.0567661
1290	0.0376697
1302	0.0289324
1314	0.0306066
1326	0.0492322
1338	0.0540455
1350	0.0828733
1362	0.219792
1374	0.52319
1386	0.209014
1398	0.067073
1410	0.0491275
1422	0.0396578
1434	0.0396578
1446	0.0416982
1458	0.0359955
1470	0.0355246
1482	0.0210322
1494	0.0341643
1506	0.0178931
1518	0.00674915
1530	0.00470871
1542	0.00235435
1554	0.00444711
1566	0.0049703
1578	0.00994061
1590	0.0175269
1602	0.0337981
1614	0.014754
1626	0.0074293
1638	0.0103068
1650	0.00878959
1662	0.0110916
1674	0.0188872
1686	0.0275198
1698	0.0556151
1710	0.243493
1722	0.37565
1734	0.0651372
1746	0.0216601
1758	0.018364
1770	0.0141784
1782	0.0127135
1794	0.0129751
1806	0.00858032
1818	0.00350537
1830	0.00104638
1842	0.000732466
1854	0.00156957
1866	0.00141261
1878	0.00224972
1890	0.0030345
1902	0.00491799
1914	0.00570277
1926	0.00361001
1938	0.00277291
1950	0.00230204
1962	0.00245899
1974	0.00230204
1986	0.00266827
1998	0.00245899
2010	0.00251131
2022	0.00272059
2034	0.0030345
2046	0.00277291
2058	0.00287755
2070	0.0030345
2082	0.00266827
2094	0.00272059
2106	0.00350537
2118	0.00366233
2130	0.00361001
2142	0.00350537
2154	0.00345305
2166	0.00376697
2178	0.00334842
2190	0.00282523
2202	0.00292986
2214	0.00251131
2226	0.00282523
2238	0.00308682
2250	0.00282523
2262	0.00313914
2274	0.0030345
2286	0.0032961
2298	0.00434248
2310	0.00486567
2322	0.0043948
2334	0.00277291
2346	0.00381929
2358	0.00418552
2370	0.00355769
2382	0.00470871
2394	0.00261595
2406	0.00256363
2418	0.00230204
2430	0.00141261
2442	0.00156957
2454	0.00146493
2466	0.00162189
2478	0.00177885
2490	0.00172653
2502	0.00177885
2514	0.00240667
2526	0.00251131
2538	0.00277291
2550	0.0030345
2562	0.00292986
2574	0.0032961
2586	0.00319146
2598	0.00319146
2610	0.00298218
2622	0.00277291
2634	0.0021974
2646	0.00230204
2658	0.00251131
2670	0.00292986
2682	0.00324378
2694	0.00361001
2706	0.00308682
2718	0.00340073
2730	0.00361001
2742	0.00449943
2754	0.00507494
2766	0.00429016
2778	0.00449943
2790	0.00554581
2802	0.00622596
2814	0.00753394
2826	0.00905119
2838	0.0113532
2850	0.0164805
2862	0.0296649
2874	0.058545
2886	0.0713108
2898	0.0474533
2910	0.0492845
2922	0.0654511
2934	0.0967901
2946	0.120229
2958	0.113846
2970	0.165014
2982	0.0835534
2994	0.0438433
3006	0.0365187
3018	0.0303973
3030	0.0331179
3042	0.0350014
3054	0.0288278
3066	0.0215554
3078	0.0190441
3090	0.013289
3102	0.00994061
3114	0.00711538
3126	0.00559813
3138	0.0049703
3150	0.00455175
3162	0.00465639
3174	0.00350537
3186	0.00366233
3198	0.00308682
3210	0.00272059
3222	0.00334842
3234	0.00251131
3246	0.00261595
3258	0.00251131
3270	0.00224972
3282	0.00287755
3294	0.00287755
3306	0.00224972
3318	0.00240667
3330	0.00282523
3342	0.00282523
3354	0.00298218
3366	0.00350537
3378	0.00345305
3390	0.00366233
3402	0.00476103
3414	0.00722002
3426	0.00429016
3438	0.00261595
3450	0.00235435
3462	0.00245899
3474	0.00251131
3486	0.00177885
3498	0.00282523
3510	0.00198812
3522	0.00224972
3534	0.00256363
3546	0.0021974
3558	0.00204044
3570	0.00319146
3582	0.00319146
3594	0.00355769
3606	0.0021974
3618	0.00287755
3630	0.00366233
3642	0.00167421
3654	0.00209276
3666	0.00235435
3678	0.00361001
3690	0.00282523
3702	0.00245899
3714	0.00277291
3726	0.00251131
3738	0.00172653
3750	0.00345305
3762	0.00172653
3774	0.00204044
3786	0.00162189
3798	0.00214508
3810	0.0032961
3822	0.00345305
3834	0.0032961
3846	0.00366233
3858	0.00355769
3870	0.00476103
3882	0.00402856
3894	0.0032961
3906	0.00387161
3918	0.00387161
3930	0.00292986
3942	0.00235435
3954	0.00361001
3966	0.0032961
