Infrared Spectrum: Propionic acid, 2-methyl-2-(m-tolylthio)-
Formula: C 11 H 14 O 2 S
CAS: 71173-08-5
Origin: Sadtler Research Labs Under US-EPA Contract
1/CM	ABSORBANCE
450	0
462	0.00758453
474	0.0201125
486	0.0371777
498	0.0434756
510	0.0685316
522	0.0743555
534	0.0849196
546	0.113632
558	0.133406
570	0.135235
582	0.0924364
594	0.0695474
606	0.0618952
618	0.0583061
630	0.0705632
642	0.120811
654	0.0902694
666	0.0516019
678	0.0509247
690	0.100495
702	0.0679899
714	0.0299995
726	0.0264104
738	0.031083
750	0.046523
762	0.0635204
774	0.152842
786	0.136792
798	0.0557327
810	0.0311507
822	0.0256655
834	0.024108
846	0.032302
858	0.0406314
870	0.0264781
882	0.0337918
894	0.02939
906	0.0320988
918	0.0331146
930	0.0277648
942	0.0239725
954	0.0247174
966	0.022889
978	0.0245143
990	0.0299318
1002	0.045304
1014	0.0495703
1026	0.034469
1038	0.0358234
1050	0.0482159
1062	0.0743555
1074	0.131849
1086	0.218529
1098	0.428187
1110	0.534709
1122	0.267625
1134	0.183586
1146	0.118441
1158	0.0811274
1170	0.0757776
1182	0.0696151
1194	0.0755744
1206	0.0958224
1218	0.0830235
1230	0.0509924
1242	0.0405637
1254	0.0425275
1266	0.0526854
1278	0.0625724
1290	0.0833621
1302	0.102527
1314	0.103542
1326	0.0954838
1338	0.0782154
1350	0.0627755
1362	0.0620306
1374	0.0710372
1386	0.0779446
1398	0.0744232
1410	0.0501121
1422	0.0516019
1434	0.0562745
1446	0.0664323
1458	0.0913529
1470	0.13151
1482	0.0960255
1494	0.0459812
1506	0.0379226
1518	0.0347398
1530	0.0346721
1542	0.0319634
1554	0.0293223
1566	0.0375163
1578	0.0557327
1590	0.0914884
1602	0.0620983
1614	0.026749
1626	0.0199094
1638	0.018081
1650	0.0192999
1662	0.0195031
1674	0.0232953
1686	0.0275616
1698	0.0315571
1710	0.0446945
1722	0.0607439
1734	0.0881024
1746	0.187785
1758	0.548862
1770	0.554889
1782	0.255233
1794	0.165302
1806	0.0656874
1818	0.0381935
1830	0.0257332
1842	0.0201125
1854	0.0197739
1866	0.0181487
1878	0.0180133
1890	0.0145596
1902	0.0123926
1914	0.0121894
1926	0.0138824
1938	0.0163203
1950	0.0136792
1962	0.0116477
1974	0.0109705
1986	0.0104287
1998	0.010835
2010	0.0104964
2022	0.0106319
2034	0.0100901
2046	0.00995469
2058	0.0096161
2070	0.00941294
2082	0.00880347
2094	0.00948066
2106	0.00934522
2118	0.0092775
2130	0.00920978
2142	0.00866803
2154	0.00887119
2166	0.00880347
2178	0.00914207
2190	0.00968382
2202	0.0100901
2214	0.00988697
2226	0.00920978
2238	0.00948066
2250	0.00900663
2262	0.00866803
2274	0.00954838
2286	0.0117831
2298	0.0151013
2310	0.0180133
2322	0.0150336
2334	0.0128666
2346	0.0148305
2358	0.0127989
2370	0.0127312
2382	0.0153722
2394	0.00887119
2406	0.00887119
2418	0.00866803
2430	0.00846488
2442	0.00866803
2454	0.00826172
2466	0.00812628
2478	0.00799084
2490	0.00717821
2502	0.00765225
2514	0.00778769
2526	0.00751681
2538	0.00751681
2550	0.00792312
2562	0.0078554
2574	0.00765225
2586	0.00751681
2598	0.00717821
2610	0.00717821
2622	0.00623015
2634	0.00663646
2646	0.00670418
2658	0.00650102
2670	0.00643331
2682	0.00670418
2694	0.00589155
2706	0.00616243
2718	0.00663646
2730	0.00778769
2742	0.00954838
2754	0.00866803
2766	0.00812628
2778	0.00826172
2790	0.00826172
2802	0.00941294
2814	0.0106319
2826	0.0114445
2838	0.013747
2850	0.0199094
2862	0.0356202
2874	0.0619629
2886	0.0574934
2898	0.0522113
2910	0.0654843
2922	0.0985989
2934	0.149794
2946	0.135167
2958	0.0662292
2970	0.0717821
2982	0.136386
2994	0.0998178
3006	0.088441
3018	0.0580352
3030	0.0602022
3042	0.0644008
3054	0.0679222
3066	0.0666355
3078	0.0474033
3090	0.0402928
3102	0.0196385
3114	0.0125957
3126	0.0106319
3138	0.00934522
3150	0.00941294
3162	0.00975154
3174	0.00934522
3186	0.00893891
3198	0.00887119
3210	0.00907435
3222	0.00914207
3234	0.00853259
3246	0.00846488
3258	0.00765225
3270	0.00765225
3282	0.00778769
3294	0.00846488
3306	0.00846488
3318	0.00893891
3330	0.0102933
3342	0.0117831
3354	0.0133406
3366	0.014695
3378	0.0155754
3390	0.0167943
3402	0.018555
3414	0.0186227
3426	0.0165234
3438	0.0150336
3450	0.0134761
3462	0.0130698
3474	0.0118508
3486	0.012054
3498	0.0132729
3510	0.0138824
3522	0.0124603
3534	0.0117154
3546	0.0156431
3558	0.0385321
3570	0.180742
3582	0.193202
3594	0.0381935
3606	0.0140178
3618	0.010361
3630	0.0101579
3642	0.00805856
3654	0.00812628
3666	0.0071105
3678	0.00839716
3690	0.00941294
3702	0.0071105
3714	0.00731365
3726	0.00860031
3738	0.00954838
3750	0.00948066
3762	0.00589155
3774	0.00663646
3786	0.00683962
3798	0.00731365
3810	0.00589155
3822	0.00643331
3834	0.00839716
3846	0.00704278
3858	0.00697506
3870	0.008194
3882	0.00751681
3894	0.00799084
3906	0.0100901
3918	0.00812628
3930	0.00771997
3942	0.00758453
3954	0.0101579
3966	0.00900663
