Infrared Spectrum: Isoindoline, 2-allyl-5-amino-1,1,3,3-tetraethyl-,
Formula: C 19 H 30 N 2
CAS: 71173-16-5
Origin: Sadtler Research Labs Under US-EPA Contract
1/CM	ABSORBANCE
450	0.00225498
462	0.0069384
474	0.00997395
486	0.00659148
498	0.00490025
510	0.00104076
522	0.00121422
534	0.00698177
546	0.0155247
558	0.0248481
570	0.0189071
582	0.0179531
594	0.0123157
606	0.015568
618	0.0159583
630	0.0161751
642	0.0297484
654	0.0593233
666	0.0580224
678	0.0430181
690	0.0360797
702	0.0210754
714	0.0127059
726	0.00563745
738	0.0096704
750	0.0102341
762	0.00424977
774	0.00672158
786	0.00615783
798	0.0252384
810	0.0966172
822	0.0167823
834	0.00750214
846	0.0276235
858	0.0436686
870	0.0130529
882	0.00789243
894	0.00771897
906	0.0531655
918	0.125195
930	0.0610579
942	0.036123
954	0.0133998
966	0.00255854
978	0.0062012
990	0.0316565
1002	0.0266261
1014	0.0222462
1026	0.0180398
1038	0.0202081
1050	0.0350389
1062	0.0438854
1074	0.0405896
1086	0.0346053
1098	0.0395922
1110	0.0372939
1122	0.0445792
1134	0.0324804
1146	0.0160017
1158	0.0363832
1170	0.043365
1182	0.122333
1194	0.118126
1206	0.0665219
1218	0.0446226
1230	0.0186036
1242	0.011882
1254	0.0239808
1266	0.0243711
1278	0.0323937
1290	0.0741108
1302	0.0696442
1314	0.0630527
1326	0.0518645
1338	0.0634864
1350	0.137077
1362	0.132523
1374	0.0669989
1386	0.0546399
1398	0.0157415
1410	0.030182
1422	0.0464873
1434	0.0349956
1446	0.0644838
1458	0.113746
1470	0.10902
1482	0.073547
1494	0.167215
1506	0.126322
1518	0.0203816
1530	0.0116218
1542	0.0111448
1554	0.00862964
1566	0.00997395
1578	0.0194709
1590	0.0457067
1602	0.0717257
1614	0.151908
1626	0.270511
1638	0.126669
1650	0.037424
1662	0.0167823
1674	0.00984386
1686	0.010104
1698	0.00784907
1710	0.00398958
1722	0.00342584
1734	0.0118386
1746	0.00407631
1758	0.00138768
1770	0.00177797
1782	0.00143105
1794	0.00147441
1806	0.0016045
1818	0.00342584
1830	0.00719859
1842	0.00455333
1854	0.00242844
1866	0.00325238
1878	0.00177797
1890	0.000563745
1902	8.673e-05
1914	0.000563745
1926	0.000216825
1938	0.00034692
1950	0.00069384
1962	0.00069384
1974	0.00112749
1986	0.00134432
1998	0.00156114
2010	0.00147441
2022	0.0018647
2034	0.0017346
2046	0.00190806
2058	0.00195143
2070	0.00251517
2082	0.0018647
2094	0.00130095
2106	0.00108413
2118	0.000997395
2130	0.00078057
2142	0.00069384
2154	0.00069384
2166	0.0008673
2178	0.000823935
2190	0.00034692
2202	0.00052038
2214	0.00052038
2226	0.000216825
2238	0.00026019
2250	0.000997395
2262	0.00121422
2274	0.00182133
2286	0.00290546
2298	0.00537726
2310	0.00659148
2322	0.00641802
2334	0.00550736
2346	0.00741542
2358	0.00624456
2370	0.00598437
2382	0.00602774
2394	0.00195143
2406	0.00177797
2418	0.00138768
2430	0.00121422
2442	0.00108413
2454	0.00117086
2466	0.00182133
2478	0.000997395
2490	0.00108413
2502	0.00104076
2514	0.00147441
2526	0.0018647
2538	0.00212488
2550	0.00281873
2562	0.00290546
2574	0.00338247
2586	0.00364266
2598	0.00398958
2610	0.00442323
2622	0.00550736
2634	0.00637466
2646	0.00633129
2658	0.00641802
2670	0.00732869
2682	0.00797916
2694	0.00767561
2706	0.0078057
2718	0.0088031
2730	0.011882
2742	0.0143972
2754	0.0138334
2766	0.0157849
2778	0.0172593
2790	0.0205984
2802	0.0258022
2814	0.0362098
2826	0.0544231
2838	0.0657847
2850	0.0745878
2862	0.115351
2874	0.150433
2886	0.224978
2898	0.188334
2910	0.184084
2922	0.285862
2934	0.404422
2946	0.413268
2958	0.260884
2970	0.420684
2982	0.345619
2994	0.188464
3006	0.0924975
3018	0.109106
3030	0.0890283
3042	0.0577188
3054	0.0565046
3066	0.0508238
3078	0.0615783
3090	0.0470077
3102	0.0199479
3114	0.0164353
3126	0.0125325
3138	0.00888983
3150	0.00728532
3162	0.00637466
3174	0.00650475
3186	0.00555072
3198	0.00481351
3210	0.00533389
3222	0.00516044
3234	0.00485688
3246	0.00325238
3258	0.00221162
3270	0.00221162
3282	0.00221162
3294	0.00169124
3306	0.00130095
3318	0.00169124
3330	0.00169124
3342	0.00247181
3354	0.00329574
3366	0.00455333
3378	0.00659148
3390	0.00971376
3402	0.021032
3414	0.0194275
3426	0.00594101
3438	0.00364266
3450	0.00450996
3462	0.00598437
3474	0.00988722
3486	0.0157415
3498	0.0130962
3510	0.00442323
3522	0.00203816
3534	0.00147441
3546	0.00190806
3558	0.0008673
3570	0.00130095
3582	0.0016045
3594	0.00147441
3606	0.00060711
3618	0.00095403
3630	0.00125759
3642	0.00147441
3654	0.000303555
3666	0.00060711
3678	0.00221162
3690	0.00169124
3702	0.00169124
3714	0.00151778
3726	0.00190806
3738	0.00169124
3750	0.00043365
3762	8.673e-05
3774	8.673e-05
3786	8.673e-05
3798	0
3810	0.000130095
3822	0.00130095
3834	0.00095403
3846	0.000823935
3858	0.00286209
3870	0.0018647
3882	0.00208152
3894	0.00138768
3906	0.00208152
3918	0.00316565
3930	0.00164787
3942	0.00199479
3954	0.00216825
3966	0.0026019
