Infrared Spectrum: Isoindoline, 5-nitro-1,1,2,3,3-pentaethyl-,
Formula: C 18 H 28 N 2 O 2
CAS: 71173-12-1
Origin: Sadtler Research Labs Under US-EPA Contract
1/CM	ABSORBANCE
450	0.00560763
462	0.00300569
474	0.00659457
486	0.00672915
498	0.00672915
510	0.00677401
522	0.0044861
534	0.0097797
546	0.0135032
558	0.016464
570	0.0194248
582	0.01615
594	0.00933109
606	0.00538332
618	0.00677401
630	0.00538332
642	0.00354402
654	0.00354402
666	0.00493471
678	0.0063254
690	0.00502443
702	0.00614596
714	0.00668429
726	0.0222959
738	0.0710598
750	0.0550444
762	0.0288008
774	0.0310887
786	0.0200529
798	0.0156565
810	0.0213538
822	0.025167
834	0.0617287
846	0.0373692
858	0.0374141
870	0.0359337
882	0.0200977
894	0.0515004
906	0.033556
918	0.011619
930	0.017765
942	0.0124265
954	0.00915164
966	0.011933
978	0.0241801
990	0.0647344
1002	0.0491228
1014	0.0274998
1026	0.0304606
1038	0.0358439
1050	0.0336009
1062	0.0446816
1074	0.0489882
1086	0.0367412
1098	0.047777
1110	0.0450404
1122	0.0398366
1134	0.0166883
1146	0.0134583
1158	0.0191108
1170	0.0324345
1182	0.0393431
1194	0.0820059
1206	0.0776095
1218	0.0559865
1230	0.0416759
1242	0.0367412
1254	0.0389393
1266	0.0379075
1278	0.0315821
1290	0.0341392
1302	0.0519939
1314	0.0788208
1326	0.113812
1338	0.228432
1350	0.44861
1362	0.189313
1374	0.0904846
1386	0.0954642
1398	0.0302363
1410	0.0214884
1422	0.0199631
1434	0.0225202
1446	0.0440535
1458	0.0812433
1470	0.100444
1482	0.063568
1494	0.0485396
1506	0.0457582
1518	0.0554033
1530	0.149656
1542	0.421738
1554	0.115024
1566	0.039388
1578	0.0503789
1590	0.0468797
1602	0.0379524
1614	0.0205463
1626	0.0125162
1638	0.0102732
1650	0.00430666
1662	0.00542818
1674	0.00215333
1686	0.000762637
1698	0.000269166
1710	0.00260194
1722	0.00224305
1734	0.00112153
1746	0.00112153
1758	0.00125611
1770	0.00143555
1782	0.00363374
1794	0.00296083
1806	0.00251222
1818	0.00165986
1830	0.000134583
1842	0.000628054
1854	0.000852359
1866	0.00044861
1878	0.00125611
1890	0.000852359
1902	0.00260194
1914	0.00399263
1926	0.00143555
1938	0.000807498
1950	0.000762637
1962	0.000538332
1974	0.000628054
1986	0.000628054
1998	0.000672915
2010	0.000717776
2022	0.000628054
2034	0.0010318
2046	0.00134583
2058	0.0010318
2070	0.00116639
2082	0.00121125
2094	0.000986942
2106	0.000942081
2118	0.000942081
2130	0.000762637
2142	0.00089722
2154	0.000986942
2166	0.0010318
2178	0.00107666
2190	0.00121125
2202	0.0010318
2214	0.00134583
2226	0.00134583
2238	0.00107666
2250	0.00157014
2262	0.0018393
2274	0.00255708
2286	0.00300569
2298	0.00376832
2310	0.00457582
2322	0.00376832
2334	0.00143555
2346	0.00255708
2358	0.00269166
2370	0.00143555
2382	0.00408235
2394	0.0028711
2406	0.00278138
2418	0.00260194
2430	0.0026468
2442	0.00278138
2454	0.00318513
2466	0.00331971
2478	0.0028711
2490	0.00260194
2502	0.00224305
2514	0.00251222
2526	0.0026468
2538	0.00269166
2550	0.00296083
2562	0.00322999
2574	0.00349916
2586	0.0042618
2598	0.0044861
2610	0.00453096
2622	0.0052936
2634	0.0061011
2646	0.00686373
2658	0.00659457
2670	0.00659457
2682	0.00686373
2694	0.0079404
2706	0.00838901
2718	0.0100937
2730	0.0119779
2742	0.0123368
2754	0.0114844
2766	0.0115293
2778	0.0126957
2790	0.0146695
2802	0.0175855
2814	0.0231931
2826	0.0314924
2838	0.0436946
2850	0.0624465
2862	0.0876135
2874	0.109685
2886	0.153873
2898	0.137768
2910	0.11933
2922	0.172894
2934	0.297698
2946	0.321294
2958	0.207886
2970	0.321833
2982	0.286348
2994	0.192678
3006	0.079404
3018	0.038401
3030	0.0274549
3042	0.0246736
3054	0.0200977
3066	0.0194248
3078	0.0190659
3090	0.0130546
3102	0.0125611
3114	0.0097797
3126	0.00825442
3138	0.00722262
3150	0.00659457
3162	0.0055179
3174	0.00560763
3186	0.00417207
3198	0.00408235
3210	0.00417207
3222	0.00390291
3234	0.00300569
3246	0.00291597
3258	0.00219819
3270	0.00224305
3282	0.001615
3294	0.00188416
3306	0.00170472
3318	0.00179444
3330	0.00116639
3342	0.00197388
3354	0.00201875
3366	0.00188416
3378	0.00165986
3390	0.00233277
3402	0.00201875
3414	0.00251222
3426	0.00210847
3438	0.00152527
3450	0.00157014
3462	0.00192902
3474	0.001615
3486	0.00179444
3498	0.00130097
3510	0.00192902
3522	0.001615
3534	0.00228791
3546	0.00260194
3558	0.0018393
3570	0.00278138
3582	0.00210847
3594	0.00233277
3606	0.00219819
3618	0.00255708
3630	0.00242249
3642	0.00273652
3654	0.00251222
3666	0.00215333
3678	0.00300569
3690	0.00318513
3702	0.00242249
3714	0.00309541
3726	0.00219819
3738	0.0028711
3750	0.00112153
3762	0.00188416
3774	0.00224305
3786	0.00165986
3798	0.00300569
3810	0.00165986
3822	0.00228791
3834	0.00255708
3846	0.00192902
3858	0.00305055
3870	0.00300569
3882	0.00314027
3894	0.00417207
3906	0.00376832
3918	0.00314027
3930	0.00340944
3942	0.00394777
3954	0.00399263
3966	0.00390291
