Infrared Spectrum: Pyridazineacetic acid, 1-, (6H), 3-chloro-6-oxo-, ethyl ester
Formula: C 8 H 9 Cl N 2 O 3
CAS: 71173-10-9
Origin: Sadtler Research Labs Under US-EPA Contract
1/CM	ABSORBANCE
450	0
462	0.00318779
474	0.0107974
486	0.0143965
498	0.0266335
510	0.0441149
522	0.050182
534	0.0341402
546	0.0273533
558	0.0278675
570	0.0390762
582	0.0366082
594	0.0365054
606	0.0533698
618	0.0394875
630	0.0285873
642	0.0389733
654	0.0891553
666	0.0958394
678	0.038562
690	0.0332147
702	0.0302326
714	0.0274561
726	0.0249882
738	0.0278675
750	0.0218004
762	0.0233429
774	0.0378422
786	0.037328
798	0.0282788
810	0.0272505
822	0.0669436
834	0.190445
846	0.0497707
858	0.0438064
870	0.0378422
882	0.026325
894	0.025708
906	0.0421611
918	0.077124
930	0.0926516
942	0.0681776
954	0.0934743
966	0.0670465
978	0.0296156
990	0.0260165
1002	0.0317751
1014	0.0614935
1026	0.158978
1038	0.169878
1050	0.0797976
1062	0.0564548
1074	0.0702343
1086	0.170598
1098	0.189005
1110	0.110442
1122	0.159801
1134	0.270551
1146	0.131728
1158	0.120313
1170	0.230447
1182	0.327109
1194	0.583572
1206	0.592004
1218	0.253892
1230	0.171318
1242	0.229521
1254	0.264792
1266	0.152808
1278	0.100364
1290	0.0990272
1302	0.167822
1314	0.215125
1326	0.10314
1338	0.0675606
1350	0.0860704
1362	0.0892582
1374	0.120108
1386	0.0869959
1398	0.0999527
1410	0.0811344
1422	0.0452461
1434	0.0353742
1446	0.0392818
1458	0.0383563
1470	0.0421611
1482	0.0381507
1494	0.0331119
1506	0.064887
1518	0.0691031
1530	0.0327006
1542	0.0194352
1554	0.0213891
1566	0.0299241
1578	0.0669436
1590	0.26109
1602	0.157436
1614	0.0425724
1626	0.0245768
1638	0.0221089
1650	0.0219032
1662	0.0452461
1674	0.0684861
1686	0.195792
1698	0.77669
1710	0.79921
1722	0.218312
1734	0.125044
1746	0.104169
1758	0.257491
1770	0.628818
1782	0.256977
1794	0.073422
1806	0.0498735
1818	0.0343459
1830	0.0253995
1842	0.0171729
1854	0.0133682
1866	0.01162
1878	0.0112087
1890	0.011003
1902	0.0104889
1914	0.00904922
1926	0.00832939
1938	0.00791806
1950	0.010386
1962	0.00812373
1974	0.00627275
1986	0.00586142
1998	0.00524443
2010	0.00473027
2022	0.00493594
2034	0.0054501
2046	0.00565576
2058	0.00627275
2070	0.00627275
2082	0.00586142
2094	0.00616992
2106	0.00555293
2118	0.00431894
2130	0.00380478
2142	0.00236514
2154	0.00174814
2166	0.00174814
2178	0.00185098
2190	0.00154248
2202	0.00133682
2214	0.00143965
2226	0.00195381
2238	0.00236514
2250	0.00215947
2262	0.0028793
2274	0.0025708
2286	0.00215947
2298	0.00329062
2310	0.00431894
2322	0.00524443
2334	0.00647842
2346	0.00791806
2358	0.00760957
2370	0.00863789
2382	0.00596426
2394	0.00349629
2406	0.00329062
2418	0.00329062
2430	0.00277646
2442	0.0028793
2454	0.00277646
2466	0.00390762
2478	0.00575859
2490	0.00596426
2502	0.00390762
2514	0.00267363
2526	0.00195381
2538	0.00215947
2550	0.00205664
2562	0.00236514
2574	0.00277646
2586	0.00205664
2598	0.00215947
2610	0.00277646
2622	0.00339346
2634	0.0028793
2646	0.0025708
2658	0.00215947
2670	0.00215947
2682	0.00298213
2694	0.00318779
2706	0.00246797
2718	0.00236514
2730	0.00236514
2742	0.0028793
2754	0.00359912
2766	0.00380478
2778	0.00421611
2790	0.00462744
2802	0.00452461
2814	0.0054501
2826	0.00658125
2838	0.00616992
2850	0.00616992
2862	0.00791806
2874	0.01162
2886	0.0183041
2898	0.0192296
2910	0.0249882
2922	0.0272505
2934	0.0322892
2946	0.0535755
2958	0.053267
2970	0.0814429
2982	0.0923431
2994	0.0974847
3006	0.0575859
3018	0.0361969
3030	0.0193324
3042	0.0115172
3054	0.00863789
3066	0.00863789
3078	0.00822656
3090	0.00555293
3102	0.00678691
3114	0.00730107
3126	0.00473027
3138	0.00359912
3150	0.00359912
3162	0.00308496
3174	0.00318779
3186	0.00339346
3198	0.00267363
3210	0.00298213
3222	0.00277646
3234	0.00236514
3246	0.00215947
3258	0.00236514
3270	0.00267363
3282	0.00267363
3294	0.00329062
3306	0.00246797
3318	0.00215947
3330	0.00236514
3342	0.00215947
3354	0.0022623
3366	0.00329062
3378	0.00503877
3390	0.0106945
3402	0.00884355
3414	0.00329062
3426	0.0025708
3438	0.00205664
3450	0.00195381
3462	0.0022623
3474	0.00215947
3486	0.00185098
3498	0.0028793
3510	0.00421611
3522	0.0051416
3534	0.00370195
3546	0.0022623
3558	0.00143965
3570	0.00277646
3582	0.0025708
3594	0.0028793
3606	0.00205664
3618	0.00246797
3630	0.00318779
3642	0.00215947
3654	0.00133682
3666	0.00246797
3678	0.0028793
3690	0.00133682
3702	0.00298213
3714	0.00298213
3726	0.00329062
3738	0.00318779
3750	0.00298213
3762	0.00308496
3774	0.0028793
3786	0.00164531
3798	0.00133682
3810	0.00267363
3822	0.00143965
3834	0.00143965
3846	0.00215947
3858	0.00215947
3870	0.0028793
3882	0.00339346
3894	0.0025708
3906	0.00267363
3918	0.00246797
3930	0.00277646
3942	0.00215947
3954	0.00195381
3966	0.00195381
