Infrared Spectrum: Isoindoline, 2-butyl-5-nitro-1,1,3,3-tetraethyl-,
Formula: C 20 H 32 N 2 O 2
CAS: 71173-17-6
Origin: Sadtler Research Labs Under US-EPA Contract
1/CM	ABSORBANCE
450	0.00710198
462	0.00440813
474	0.00725504
486	0.00737749
498	0.0101326
510	0.0114183
522	0.0099489
534	0.0112958
546	0.0157652
558	0.0168366
570	0.016255
582	0.0144795
594	0.0119387
606	0.00903054
618	0.00887748
630	0.00768361
642	0.00731627
654	0.00685709
666	0.00673464
678	0.00805096
690	0.009704
702	0.00933666
714	0.0106836
726	0.0257141
738	0.0532343
750	0.0460098
762	0.0278875
774	0.0251325
786	0.0145101
798	0.00701015
810	0.00945911
822	0.0135305
834	0.0482139
846	0.0249488
858	0.0374691
870	0.0119387
882	0.0205407
894	0.0466527
906	0.0307344
918	0.0170203
930	0.0275202
942	0.0251018
954	0.0139591
966	0.0121836
978	0.0113877
990	0.0156121
1002	0.0255916
1014	0.0249488
1026	0.0200202
1038	0.0301834
1050	0.0302753
1062	0.0279181
1074	0.0269386
1086	0.0243672
1098	0.0374385
1110	0.0345303
1122	0.0314997
1134	0.0147856
1146	0.0151529
1158	0.0236631
1170	0.027612
1182	0.046316
1194	0.0625097
1206	0.0484894
1218	0.032265
1230	0.0206019
1242	0.0273365
1254	0.030214
1266	0.0283161
1278	0.0281018
1290	0.0297549
1302	0.0427037
1314	0.0631526
1326	0.0938258
1338	0.176907
1350	0.302263
1362	0.129274
1374	0.0616832
1386	0.0559587
1398	0.0201733
1410	0.0158264
1422	0.0165917
1434	0.0210917
1446	0.0409895
1458	0.0668872
1470	0.0777545
1482	0.0461323
1494	0.0356936
1506	0.0384487
1518	0.0589893
1530	0.117703
1542	0.274345
1554	0.0695505
1566	0.024612
1578	0.03101
1590	0.0291426
1602	0.0238774
1614	0.0127346
1626	0.00618362
1638	0.00523465
1650	0.00624485
1662	0.0058775
1674	0.00260202
1686	0.000244896
1698	0
1710	0.00263263
1722	0.00361222
1734	0.00208162
1746	0.00345916
1758	0.0033061
1770	0.00324487
1782	0.00474486
1794	0.00394895
1806	0.00333671
1818	0.00266324
1830	0.00146938
1842	0.00171427
1854	0.0022959
1866	0.00149999
1878	0.00235712
1890	0.00192856
1902	0.00312242
1914	0.00410201
1926	0.00269386
1938	0.00214284
1950	0.00220406
1962	0.00211223
1974	0.002051
1986	0.00208162
1998	0.00208162
2010	0.00235712
2022	0.00241835
2034	0.00263263
2046	0.00266324
2058	0.0025408
2070	0.00263263
2082	0.00241835
2094	0.00272447
2106	0.00266324
2118	0.00241835
2130	0.00238774
2142	0.0022959
2154	0.00220406
2166	0.00251018
2178	0.00284692
2190	0.00290814
2202	0.00257141
2214	0.00290814
2226	0.00266324
2238	0.00272447
2250	0.00287753
2262	0.0030612
2274	0.00364283
2286	0.00431629
2298	0.00554077
2310	0.00679586
2322	0.00682648
2334	0.0063673
2346	0.0066428
2358	0.00704076
2370	0.00590812
2382	0.00593873
2394	0.00428568
2406	0.00379589
2418	0.00379589
2430	0.0040714
2442	0.00379589
2454	0.00401017
2466	0.0043469
2478	0.00410201
2490	0.00401017
2502	0.00376528
2514	0.00410201
2526	0.0043469
2538	0.00456119
2550	0.0045918
2562	0.0048367
2574	0.00529588
2586	0.00572444
2598	0.00581628
2610	0.00624485
2622	0.00624485
2634	0.00762239
2646	0.00786728
2658	0.00823463
2670	0.00811218
2682	0.00869381
2694	0.00921421
2706	0.00988768
2718	0.0108366
2730	0.0127652
2742	0.0146631
2754	0.0138978
2766	0.0134081
2778	0.0146631
2790	0.0167142
2802	0.0195917
2814	0.024061
2826	0.031561
2838	0.0431017
2850	0.0571526
2862	0.083081
2874	0.107662
2886	0.134203
2898	0.115407
2910	0.111703
2922	0.149601
2934	0.229804
2946	0.254569
2958	0.195764
2970	0.30612
2982	0.196651
2994	0.108183
3006	0.0485506
3018	0.0268161
3030	0.0200509
3042	0.0180917
3054	0.0148774
3066	0.0146938
3078	0.0143876
3090	0.0100101
3102	0.0101326
3114	0.00774484
3126	0.00676525
3138	0.00593873
3150	0.00575506
3162	0.00566322
3174	0.00474486
3186	0.00498976
3198	0.00443874
3210	0.00410201
3222	0.00367344
3234	0.00318365
3246	0.00318365
3258	0.00336732
3270	0.00327548
3282	0.00309181
3294	0.00324487
3306	0.00299998
3318	0.00324487
3330	0.00290814
3342	0.00309181
3354	0.00284692
3366	0.00339793
3378	0.00336732
3390	0.00342854
3402	0.00373466
3414	0.00342854
3426	0.00364283
3438	0.0035816
3450	0.00290814
3462	0.0033061
3474	0.0035816
3486	0.00312242
3498	0.00352038
3510	0.00404078
3522	0.00339793
3534	0.00376528
3546	0.0038265
3558	0.0033061
3570	0.00397956
3582	0.00370405
3594	0.00401017
3606	0.00416323
3618	0.00425507
3630	0.00404078
3642	0.00391834
3654	0.00419384
3666	0.00364283
3678	0.00361222
3690	0.0043469
3702	0.00364283
3714	0.00413262
3726	0.00425507
3738	0.00348977
3750	0.00410201
3762	0.00327548
3774	0.00376528
3786	0.00376528
3798	0.00379589
3810	0.0033061
3822	0.00355099
3834	0.00453058
3846	0.00370405
3858	0.00443874
3870	0.00456119
3882	0.00471425
3894	0.00394895
3906	0.0053571
3918	0.00449996
3930	0.00480608
3942	0.00440813
3954	0.00505098
3966	0.00498976
