Infrared Spectrum: p-Lactotoluidide
Formula: C 10 H 13 N O 2
CAS: 71173-20-1
Origin: Sadtler Research Labs Under US-EPA Contract
1/CM	ABSORBANCE
450	0.0142547
462	0.0168522
474	0.00810931
486	0.010105
498	0.0145397
510	0.0169155
522	0.0099149
534	0.00947142
546	0.00586025
558	0.00392795
570	0.00586025
582	0.00459317
594	0.00611366
606	0.00734906
618	0.00750745
630	0.00877453
642	0.00899627
654	0.00719068
666	0.00576521
678	0.000855279
690	0.00180559
702	0.00202733
714	0.00120373
726	0.000855279
738	0.000855279
750	0.00171056
762	0.000886956
774	0.00272422
786	0.00880621
798	0.0264503
810	0.041972
822	0.0262286
834	0.0136528
846	0.00655714
858	0.00503664
870	0.00969316
882	0.0104534
894	0.00462484
906	0.00310435
918	0.00281925
930	0.00465652
942	0.00582857
954	0.00329441
966	0.00272422
978	0.00348447
990	0.00449813
1002	0.00671552
1014	0.0148565
1026	0.0228391
1038	0.0268304
1050	0.0232192
1062	0.0199565
1074	0.0227441
1086	0.0304733
1098	0.0477689
1110	0.0585391
1122	0.0514751
1134	0.0475472
1146	0.0280341
1158	0.0220155
1170	0.0198932
1182	0.0215087
1194	0.0191963
1206	0.0163137
1218	0.0177708
1230	0.0355416
1242	0.0505248
1254	0.0322472
1266	0.0344012
1278	0.0435242
1290	0.0560049
1302	0.0364602
1314	0.0631639
1326	0.0309484
1338	0.0242646
1350	0.0181509
1362	0.0201782
1374	0.0290478
1386	0.0367453
1398	0.0473571
1410	0.0530907
1422	0.0303782
1434	0.0212236
1446	0.0240112
1458	0.0313286
1470	0.0345279
1482	0.0450764
1494	0.0777354
1506	0.136148
1518	0.268051
1530	0.278789
1542	0.0908813
1554	0.0349397
1566	0.021382
1578	0.0229975
1590	0.0455832
1602	0.0478956
1614	0.0343062
1626	0.0228074
1638	0.0131143
1650	0.00981987
1662	0.0114354
1674	0.0167571
1686	0.0241696
1698	0.048054
1710	0.115399
1722	0.152746
1734	0.07669
1746	0.0261969
1758	0.0164087
1770	0.0143497
1782	0.011277
1794	0.00890124
1806	0.00668385
1818	0.00383292
1830	0.00262919
1842	0.00269255
1854	0.00278758
1866	0.00259751
1878	0.00247081
1890	0.00247081
1902	0.00142547
1914	0.00114037
1926	0.000665217
1938	0.000380124
1950	0.000126708
1962	0.000253416
1974	0.000475155
1986	0.00031677
1998	0.000475155
2010	3.1677e-05
2022	0.000126708
2034	0.00031677
2046	0.000126708
2058	0.000380124
2070	0.000538509
2082	0.000570186
2094	0.000538509
2106	0.000538509
2118	0.000411801
2130	0.000601863
2142	0.000538509
2154	0.000380124
2166	0.000665217
2178	0.000538509
2190	0.000601863
2202	0.000791925
2214	0.000855279
2226	0.00120373
2238	0.00174224
2250	0.00243913
2262	0.00408633
2274	0.00747577
2286	0.00880621
2298	0.00636708
2310	0.00557515
2322	0.00338944
2334	0.000791925
2346	0.00202733
2358	0.00186894
2370	0.000285093
2382	0.00266087
2394	0.000665217
2406	0.000285093
2418	0.00031677
2430	0.000475155
2442	9.5031e-05
2454	0.000665217
2466	0.000728571
2478	0.000760248
2490	0.000411801
2502	0.000348447
2514	0.00031677
2526	0.000696894
2538	0.000665217
2550	0.000285093
2562	0.000221739
2574	0.000285093
2586	0.000665217
2598	0.000443478
2610	0.000538509
2622	0.000443478
2634	0.000285093
2646	0.000665217
2658	0.000506832
2670	0.000443478
2682	0.000506832
2694	0.000918633
2706	0.00114037
2718	0.0012354
2730	0.00148882
2742	0.0023441
2754	0.00202733
2766	0.0015205
2778	0.00139379
2790	0.00126708
2802	0.00167888
2814	0.00231242
2826	0.00300932
2838	0.00364286
2850	0.00554347
2862	0.0102633
2874	0.0188795
2886	0.0221422
2898	0.0180559
2910	0.0194814
2922	0.0271472
2934	0.0414652
2946	0.0290795
2958	0.0159019
2970	0.0204317
2982	0.0351931
2994	0.0266404
3006	0.0214453
3018	0.0204633
3030	0.0303466
3042	0.022364
3054	0.0185944
3066	0.0123224
3078	0.00614534
3090	0.00437143
3102	0.00421304
3114	0.00405466
3126	0.00310435
3138	0.00190062
3150	0.00114037
3162	0.000855279
3174	0.000760248
3186	0.00107702
3198	0.00114037
3210	0.000981987
3222	0.000981987
3234	0.00117205
3246	0.000855279
3258	0.000728571
3270	0.00063354
3282	0.00095031
3294	0.000791925
3306	0.000728571
3318	0.00120373
3330	0.00139379
3342	0.00177391
3354	0.0016472
3366	0.00212236
3378	0.00250248
3390	0.00373789
3402	0.00636708
3414	0.0148248
3426	0.0414652
3438	0.0301882
3450	0.00981987
3462	0.00719068
3474	0.00449813
3486	0.00452981
3498	0.00665217
3510	0.00871117
3522	0.00696894
3534	0.00525838
3546	0.00408633
3558	0.00272422
3570	0.00297764
3582	0.00256584
3594	0.0016472
3606	0.0012354
3618	0.00142547
3630	0.00278758
3642	0.00367453
3654	0.00975652
3666	0.0112137
3678	0.00443478
3690	0.00126708
3702	3.1677e-05
3714	0.000285093
3726	3.1677e-05
3738	0.000823602
3750	0.000380124
3762	3.1677e-05
3774	3.1677e-05
3786	0.000380124
3798	3.1677e-05
3810	3.1677e-05
3822	0.000570186
3834	0.000158385
3846	6.3354e-05
3858	0.000443478
3870	0.000253416
3882	0.000696894
3894	3.1677e-05
3906	0.000221739
3918	0.000221739
3930	3.1677e-05
3942	6.3354e-05
3954	0.000158385
3966	0.00104534
