Infrared Spectrum: Morpholine, 4-piperidinosulfonyl-
Formula: C 9 H 18 N 2 O 3 S
CAS: 71173-07-4
Origin: Sadtler Research Labs Under US-EPA Contract
1/CM	ABSORBANCE
450	0
462	0.0124021
474	0.0208718
486	0.034383
498	0.0774374
510	0.0922594
522	0.207508
534	0.14701
546	0.0395254
558	0.0377104
570	0.0897387
582	0.15064
594	0.089537
606	0.0721943
618	0.0952843
630	0.090747
642	0.0837897
654	0.0474909
666	0.0537424
678	0.0640271
690	0.0867138
702	0.111518
714	0.117164
726	0.353409
738	0.607602
750	0.103048
762	0.0367021
774	0.0252075
786	0.0209726
798	0.0218801
810	0.0321648
822	0.0620104
834	0.0946794
846	0.0622121
858	0.0885287
870	0.0471884
882	0.0619096
894	0.102141
906	0.196114
918	0.480052
930	0.99731
942	0.820454
954	0.463516
966	0.205492
978	0.102443
990	0.0653378
1002	0.0505158
1014	0.0691694
1026	0.114845
1038	0.166672
1050	0.253487
1062	0.288172
1074	0.331731
1086	0.151951
1098	0.128357
1110	0.288676
1122	0.516451
1134	0.319833
1146	0.362686
1158	0.609114
1170	0.847274
1182	0.30733
1194	0.0967968
1206	0.0875204
1218	0.118979
1230	0.0820756
1242	0.0579772
1254	0.16395
1266	0.231607
1278	0.130272
1290	0.13723
1302	0.135112
1314	0.139347
1326	0.190468
1338	0.25268
1350	0.362383
1362	0.522804
1374	0.523005
1386	0.298961
1398	0.118274
1410	0.0440627
1422	0.0334756
1434	0.0471884
1446	0.11424
1458	0.177562
1470	0.081874
1482	0.0311565
1494	0.0157295
1506	0.0131079
1518	0.00947802
1530	0.00776391
1542	0.00715893
1554	0.00786474
1566	0.00635229
1578	0.0060498
1590	0.00645312
1602	0.00746142
1614	0.00816723
1626	0.00736059
1638	0.00796557
1650	0.00756225
1662	0.00796557
1674	0.0107888
1686	0.0113938
1698	0.00877221
1710	0.00846972
1722	0.00877221
1734	0.00836889
1746	0.00826806
1758	0.00846972
1770	0.00877221
1782	0.0090747
1794	0.00786474
1806	0.0070581
1818	0.0060498
1830	0.00483984
1842	0.00544482
1854	0.00594897
1866	0.00564648
1878	0.00524316
1890	0.00544482
1902	0.00584814
1914	0.00594897
1926	0.00615063
1938	0.00645312
1950	0.00776391
1962	0.00988134
1974	0.00978051
1986	0.00675561
1998	0.00594897
2010	0.00584814
2022	0.00534399
2034	0.00534399
2046	0.00584814
2058	0.00564648
2070	0.00574731
2082	0.00534399
2094	0.00494067
2106	0.00483984
2118	0.00423486
2130	0.0040332
2142	0.00383154
2154	0.00373071
2166	0.00393237
2178	0.00423486
2190	0.00413403
2202	0.00423486
2214	0.00423486
2226	0.00534399
2238	0.00645312
2250	0.00564648
2262	0.00544482
2274	0.00625146
2286	0.0080664
2298	0.00967968
2310	0.0114946
2322	0.00998217
2334	0.00645312
2346	0.00766308
2358	0.00635229
2370	0.00635229
2382	0.00766308
2394	0.00342822
2406	0.00322656
2418	0.00312573
2430	0.00262158
2442	0.00252075
2454	0.00231909
2466	0.00312573
2478	0.0040332
2490	0.0040332
2502	0.00453735
2514	0.00524316
2526	0.00423486
2538	0.00312573
2550	0.00282324
2562	0.00292407
2574	0.00393237
2586	0.00342822
2598	0.00393237
2610	0.00494067
2622	0.0060498
2634	0.00665478
2646	0.0090747
2658	0.0119988
2670	0.0171411
2682	0.0237959
2694	0.0208718
2706	0.0210735
2718	0.0212751
2730	0.0219809
2742	0.0214768
2754	0.0246025
2766	0.0229892
2778	0.0204685
2790	0.020771
2802	0.0271233
2814	0.0400295
2826	0.0669511
2838	0.116358
2850	0.260545
2862	0.621617
2874	0.454441
2886	0.182401
2898	0.197324
2910	0.239068
2922	0.308641
2934	0.403118
2946	0.735454
2958	0.409571
2970	0.358955
2982	0.294928
2994	0.106275
3006	0.0678586
3018	0.0237959
3030	0.0120996
3042	0.0080664
3054	0.00594897
3066	0.00473901
3078	0.00342822
3090	0.00362988
3102	0.00312573
3114	0.00322656
3126	0.00292407
3138	0.00211743
3150	0.00221826
3162	0.00191577
3174	0.00241992
3186	0.00191577
3198	0.00221826
3210	0.00171411
3222	0.00181494
3234	0.00211743
3246	0.00211743
3258	0.00252075
3270	0.00262158
3282	0.00231909
3294	0.00262158
3306	0.00262158
3318	0.00272241
3330	0.00352905
3342	0.00342822
3354	0.00362988
3366	0.00342822
3378	0.00393237
3390	0.00433569
3402	0.00383154
3414	0.00342822
3426	0.00322656
3438	0.00383154
3450	0.00463818
3462	0.00352905
3474	0.0030249
3486	0.0030249
3498	0.00352905
3510	0.00342822
3522	0.00362988
3534	0.00262158
3546	0.00262158
3558	0.00322656
3570	0.00362988
3582	0.00312573
3594	0.00362988
3606	0.00322656
3618	0.00292407
3630	0.00312573
3642	0.00332739
3654	0.00342822
3666	0.00312573
3678	0.00362988
3690	0.00383154
3702	0.00453735
3714	0.00483984
3726	0.00393237
3738	0.00473901
3750	0.00332739
3762	0.00362988
3774	0.0040332
3786	0.00292407
3798	0.00332739
3810	0.00352905
3822	0.00352905
3834	0.00383154
3846	0.00332739
3858	0.00292407
3870	0.00322656
3882	0.00352905
3894	0.00463818
3906	0.00312573
3918	0.0040332
3930	0.00433569
3942	0.00211743
3954	0.0040332
3966	0.00423486
