Infrared Spectrum: Benzofuranone, 3-(2-chloroethyl)-3-phenyl-2(3H)-,
Formula: C 16 H 13 Cl O 2
CAS: 71173-19-8
Origin: Sadtler Research Labs Under US-EPA Contract
1/CM	ABSORBANCE
450	0.0143141
462	0.00492528
474	0.006526
486	0.0128057
498	0.0128057
510	0.0194549
522	0.00874237
534	0.00129289
546	0.00354004
558	0.00695696
570	0.0159456
582	0.0132367
594	0.00985056
606	0.0144988
618	0.00557172
630	0.0116668
642	0.0131136
654	0.0195472
666	0.0184698
678	0.0199782
690	0.0430654
702	0.0414955
714	0.0281357
726	0.0372474
738	0.0364779
750	0.143818
762	0.0437734
774	0.0216097
786	0.0105278
798	0.00720322
810	0.00935803
822	0.00988134
834	0.00751105
846	0.00708009
858	0.0117591
870	0.0243494
882	0.0408183
894	0.040572
906	0.0311832
918	0.0269351
930	0.0218559
942	0.0253036
954	0.0112358
966	0.0155762
978	0.0226255
990	0.0264118
1002	0.0541473
1014	0.100814
1026	0.148836
1038	0.0671993
1050	0.0785274
1062	0.111003
1074	0.0765573
1086	0.0245341
1098	0.011636
1110	0.0155762
1122	0.0558711
1134	0.0443583
1146	0.0106201
1158	0.0110819
1170	0.0162842
1182	0.0253344
1194	0.0150837
1206	0.0110819
1218	0.0220714
1230	0.0691694
1242	0.0530083
1254	0.0190855
1266	0.01376
1278	0.0173
1290	0.0396793
1302	0.0220098
1314	0.0182851
1326	0.0164073
1338	0.0121593
1350	0.00901942
1362	0.0047098
1374	0.0028936
1386	0.00132367
1398	0.000554094
1410	0.000523311
1422	0.00544859
1434	0.0120054
1446	0.0249342
1458	0.0793586
1470	0.0926876
1482	0.0624587
1494	0.0365702
1506	0.0255191
1518	0.00587955
1530	0.00357083
1542	0.0047098
1554	0.00329378
1566	0.00381709
1578	0.00914255
1590	0.0241647
1602	0.0311832
1614	0.034754
1626	0.0161303
1638	0.00366318
1650	0.003263
1662	0.00295517
1674	0.00492528
1686	0.00606425
1698	0.00455588
1710	0.00366318
1722	0.00335535
1734	0.00304752
1746	0.00221638
1758	0.0045251
1770	0.0129904
1782	0.0245341
1794	0.040141
1806	0.0782196
1818	0.245433
1830	0.253467
1842	0.0708625
1854	0.02241
1866	0.0141294
1878	0.0100968
1890	0.00892707
1902	0.00781888
1914	0.00563329
1926	0.00483293
1938	0.0074187
1950	0.00627973
1962	0.00486371
1974	0.00264734
1986	0.00221638
1998	0.00240107
2010	0.00230873
2022	0.00286282
2034	0.00261656
2046	0.00264734
2058	0.00203168
2070	0.00233951
2082	0.0027089
2094	0.00273969
2106	0.00277047
2118	0.00255499
2130	0.00240107
2142	0.00212403
2154	0.00153915
2166	0.00178541
2178	0.00166228
2190	0.0018162
2202	0.00153915
2214	0.00135445
2226	0.00110819
2238	0.00138524
2250	0.00138524
2262	0.00169306
2274	0.00190855
2286	0.0028936
2298	0.0047098
2310	0.00572564
2322	0.00483293
2334	0.0030783
2346	0.00317065
2358	0.00347848
2370	0.0034477
2382	0.00354004
2394	0.00092349
2406	0.000892707
2418	0.000554094
2430	0.00092349
2442	0.000677226
2454	0.00150837
2466	0.00169306
2478	0.00135445
2490	0.00138524
2502	0.000800358
2514	0.00120054
2526	0.00132367
2538	0.00138524
2550	0.00116975
2562	0.00110819
2574	0.000523311
2586	0.00138524
2598	0.00116975
2610	0.00104662
2622	0.00107741
2634	0.000861924
2646	0.00104662
2658	0.000800358
2670	0.000985056
2682	0.000954273
2694	0.00120054
2706	0.000954273
2718	0.00135445
2730	0.00101584
2742	0.00120054
2754	0.000831141
2766	0.00101584
2778	0.00138524
2790	0.00153915
2802	0.00147758
2814	0.00123132
2826	0.00135445
2838	0.00138524
2850	0.0014468
2862	0.00246264
2874	0.00354004
2886	0.00397101
2898	0.00215481
2910	0.00203168
2922	0.00317065
2934	0.00649521
2946	0.00895785
2958	0.00948116
2970	0.0161919
2982	0.00932725
2994	0.00551016
3006	0.00837298
3018	0.00744949
3030	0.0132983
3042	0.0236413
3054	0.0226255
3066	0.0351234
3078	0.0429115
3090	0.0243186
3102	0.0160072
3114	0.00812671
3126	0.00317065
3138	0.00129289
3150	0.00147758
3162	0.00160072
3174	0.00150837
3186	0.00120054
3198	0.000985056
3210	0.00104662
3222	0.00116975
3234	0.000861924
3246	0.00110819
3258	0.00101584
3270	0.00101584
3282	0.00141602
3294	0.000584877
3306	0.000708009
3318	0.00092349
3330	0.00187776
3342	0.00129289
3354	0.000554094
3366	0.0014468
3378	0.000831141
3390	0.000738792
3402	0.00193933
3414	0.00120054
3426	0.0012621
3438	0.00129289
3450	0.00129289
3462	0.00107741
3474	0.00116975
3486	0.00120054
3498	0.00187776
3510	0.00132367
3522	0.00123132
3534	0.00184698
3546	0.00116975
3558	0.00110819
3570	0.00246264
3582	0.00264734
3594	0.00218559
3606	0.00200089
3618	0.00449432
3630	0.00443275
3642	0.0028936
3654	0.00156993
3666	0.00255499
3678	0.00132367
3690	0.00203168
3702	0.00197011
3714	0.0028936
3726	0.00193933
3738	0.0027089
3750	0.00147758
3762	0.00147758
3774	0.00206246
3786	0.000430962
3798	0.00203168
3810	0.00107741
3822	0.00160072
3834	0.00178541
3846	0.000215481
3858	0.00030783
3870	0.00138524
3882	0.000153915
3894	0.00237029
3906	0.00212403
3918	0.000554094
3930	0.000461745
3942	0.00104662
3954	0.00277047
3966	0.00317065
