Infrared Spectrum: 2-Norbornanol, 1-phenyl-, acetate
Formula: C 15 H 18 O 2
CAS: 71173-15-4
Origin: Sadtler Research Labs Under US-EPA Contract
1/CM	ABSORBANCE
450	0
462	0.00121902
474	0.00506363
486	0.0146283
498	0.0288815
510	0.0151909
522	0.0161286
534	0.0506363
546	0.0199732
558	0.0100335
570	0.0093771
582	0.0120965
594	0.0234427
606	0.0472606
618	0.0205358
630	0.0247555
642	0.0158473
654	0.0162224
666	0.02785
678	0.021286
690	0.0980845
702	0.137375
714	0.0255057
726	0.0214736
738	0.0171601
750	0.080268
762	0.06714
774	0.0152847
786	0.0182853
798	0.00918956
810	0.0106899
822	0.00797053
834	0.0105961
846	0.0226926
858	0.0239116
870	0.0125653
882	0.0093771
894	0.0178165
906	0.0382586
918	0.020067
930	0.0203483
942	0.0441661
954	0.0330074
966	0.0373209
978	0.0304756
990	0.0325385
1002	0.0510114
1014	0.0808306
1026	0.202639
1038	0.340483
1050	0.152097
1062	0.106993
1074	0.13578
1086	0.0799867
1098	0.0547623
1110	0.0409779
1122	0.0264434
1134	0.0309444
1146	0.0585131
1158	0.0572003
1170	0.0397589
1182	0.0912392
1194	0.0858942
1206	0.151721
1218	0.366551
1230	0.816558
1242	0.813182
1254	0.290503
1266	0.149096
1278	0.0703282
1290	0.0420094
1302	0.0445412
1314	0.0385399
1326	0.034414
1338	0.0358205
1350	0.0559813
1362	0.107743
1374	0.198607
1386	0.0903952
1398	0.0320697
1410	0.0224113
1422	0.0240054
1434	0.0315071
1446	0.0638581
1458	0.0573879
1470	0.0267247
1482	0.0320697
1494	0.0674213
1506	0.0539183
1518	0.0239116
1530	0.0197857
1542	0.0194106
1554	0.0126591
1566	0.0120027
1578	0.0144407
1590	0.0242867
1602	0.0403215
1614	0.0247555
1626	0.011065
1638	0.00993973
1650	0.0124715
1662	0.0115338
1674	0.014722
1686	0.0194106
1698	0.0295379
1710	0.0403215
1722	0.0647958
1734	0.103898
1746	0.200389
1758	0.671307
1770	0.293503
1782	0.0747355
1794	0.0571065
1806	0.041353
1818	0.03357
1830	0.0185667
1842	0.0140656
1854	0.012284
1866	0.0125653
1878	0.0105024
1890	0.00768922
1902	0.00506363
1914	0.00431347
1926	0.00609511
1938	0.0105961
1950	0.00890824
1962	0.00684528
1974	0.00375084
1986	0.00337576
1998	0.00384461
2010	0.00318821
2022	0.00300067
2034	0.00318821
2046	0.00346953
2058	0.0035633
2070	0.00412592
2082	0.00421969
2094	0.00468855
2106	0.00384461
2118	0.00384461
2130	0.00431347
2142	0.00459478
2154	0.00459478
2166	0.00478232
2178	0.00496986
2190	0.00403215
2202	0.0035633
2214	0.00337576
2226	0.0029069
2238	0.00309444
2250	0.0029069
2262	0.00328198
2274	0.00403215
2286	0.00450101
2298	0.00590757
2310	0.00750168
2322	0.00684528
2334	0.0051574
2346	0.00600134
2358	0.00553249
2370	0.0029069
2382	0.00384461
2394	0.00168788
2406	0.00187542
2418	0.00196919
2430	0.00215673
2442	0.00262559
2454	0.0029069
2466	0.0029069
2478	0.00262559
2490	0.00168788
2502	0.00159411
2514	0.00131279
2526	0.00150034
2538	0.00168788
2550	0.00187542
2562	0.00178165
2574	0.00187542
2586	0.0022505
2598	0.00243805
2610	0.00281313
2622	0.00206296
2634	0.00159411
2646	0.00178165
2658	0.00206296
2670	0.00187542
2682	0.00196919
2694	0.00234427
2706	0.00215673
2718	0.00215673
2730	0.00215673
2742	0.00243805
2754	0.00253182
2766	0.00309444
2778	0.00346953
2790	0.00309444
2802	0.00346953
2814	0.00393838
2826	0.00421969
2838	0.00543872
2850	0.00881447
2862	0.0235365
2874	0.0877697
2886	0.162318
2898	0.0511052
2910	0.0473544
2922	0.0731414
2934	0.0910516
2946	0.18576
2958	0.32501
2970	0.655741
2982	0.194762
2994	0.0452914
3006	0.0253182
3018	0.0309444
3030	0.0643269
3042	0.0844877
3054	0.0608574
3066	0.103148
3078	0.0803617
3090	0.0551373
3102	0.0328198
3114	0.0201608
3126	0.0115338
3138	0.00675151
3150	0.00609511
3162	0.00534495
3174	0.00393838
3186	0.00337576
3198	0.00309444
3210	0.00253182
3222	0.00281313
3234	0.00253182
3246	0.00243805
3258	0.00215673
3270	0.00196919
3282	0.00215673
3294	0.00243805
3306	0.00243805
3318	0.00234427
3330	0.0029069
3342	0.0022505
3354	0.00243805
3366	0.00309444
3378	0.00393838
3390	0.00318821
3402	0.0029069
3414	0.00253182
3426	0.00281313
3438	0.00281313
3450	0.00318821
3462	0.00318821
3474	0.00393838
3486	0.00487609
3498	0.00553249
3510	0.00365707
3522	0.00234427
3534	0.00234427
3546	0.0035633
3558	0.00375084
3570	0.00421969
3582	0.00478232
3594	0.00450101
3606	0.00253182
3618	0.00234427
3630	0.00234427
3642	0.00300067
3654	0.00215673
3666	0.00300067
3678	0.00206296
3690	0.00206296
3702	0.00262559
3714	0.00318821
3726	0.00318821
3738	0.00384461
3750	0.00140656
3762	0.00234427
3774	0.00253182
3786	0.00196919
3798	0.00215673
3810	0.00131279
3822	0.00187542
3834	0.00168788
3846	0.00168788
3858	0.00131279
3870	0.00196919
3882	0.00206296
3894	0.00271936
3906	0.00243805
3918	0.00318821
3930	0.00196919
3942	0.00281313
3954	0.00318821
3966	0.00196919
