Infrared Spectrum: 4,4'-Thiobis(o-cresol- 6-tert-butyl)-, diacetate
Formula: C 26 H 34 O 4 S
CAS: 71173-06-3
Origin: Sadtler Research Labs Under US-EPA Contract
1/CM	ABSORBANCE
450	0.0119711
462	0.00825911
474	0.00498021
486	0.00296957
498	0.0063722
510	0.00708366
522	0.00315517
534	0.00365009
546	0.0111359
558	0.00699086
570	0.010177
582	0.00912523
594	0.00711459
606	0.0227048
618	0.014322
630	0.0163636
642	0.0133631
654	0.00105172
666	0.00235091
678	0.00133012
690	0.00303143
702	0.0033717
714	0.0103007
726	0.00547514
738	0.00463995
750	0.00494928
762	0.0117855
774	0.0107028
786	0.0108884
798	0.0260765
810	0.0161161
822	0.012002
834	0.012002
846	0.0185907
858	0.0388828
870	0.0524933
882	0.0374908
894	0.0284274
906	0.0552463
918	0.0390993
930	0.0246845
942	0.0137961
954	0.0130228
966	0.0149716
978	0.0198281
990	0.0293245
1002	0.0529882
1014	0.0504827
1026	0.0322631
1038	0.0306546
1050	0.0308711
1062	0.0305618
1074	0.0354802
1086	0.0422545
1098	0.0567311
1110	0.0913142
1122	0.0621753
1134	0.0823436
1146	0.216562
1158	0.176906
1170	0.0802711
1182	0.150149
1194	0.267911
1206	0.298658
1218	0.121103
1230	0.0271592
1242	0.016642
1254	0.0240968
1266	0.0317373
1278	0.0181577
1290	0.00414502
1302	0.0032789
1314	0.00414502
1326	0.00634126
1338	0.0113524
1350	0.0249629
1362	0.0854988
1374	0.0848802
1386	0.0300978
1398	0.0446363
1410	0.0372124
1422	0.0607833
1434	0.0545658
1446	0.0446363
1458	0.0445745
1470	0.0495237
1482	0.0392849
1494	0.0134868
1506	0.00859937
1518	0.00699086
1530	0.00717646
1542	0.00850657
1554	0.0121567
1566	0.0280872
1578	0.0319847
1590	0.00996043
1602	0.00544421
1614	0.00504208
1626	0.00513488
1638	0.00535141
1650	0.00587727
1662	0.00606287
1674	0.00816631
1686	0.00952736
1698	0.0119401
1710	0.0153428
1722	0.019395
1734	0.0274994
1746	0.0523696
1758	0.147767
1770	0.171833
1782	0.0767757
1794	0.0179721
1806	0.00841378
1818	0.00748579
1830	0.00553701
1842	0.00321703
1854	0.00266024
1866	0.00151572
1878	0.00102079
1890	0.00092799
1902	0.000897057
1914	0.00173225
1926	0.00154665
1938	0.000649593
1950	0.000866124
1962	0.000835191
1974	0.00061866
1986	0.00133012
1998	0.00157758
2010	0.00139198
2022	0.00114452
2034	0.00114452
2046	0.00173225
2058	0.00204158
2070	0.00210344
2082	0.00179411
2094	0.00154665
2106	0.00179411
2118	0.00170131
2130	0.00126825
2142	0.00114452
2154	0.000835191
2166	0.00126825
2178	0.000835191
2190	0.000897057
2202	0.00105172
2214	0.00105172
2226	0.000989856
2238	0.00105172
2250	0.00114452
2262	0.00114452
2274	0.00179411
2286	0.00182505
2298	0.00241277
2310	0.00247464
2322	0.00160852
2334	0.00120639
2346	0.00293863
2358	0.00216531
2370	0.00191785
2382	0.00287677
2394	0.00163945
2406	0.00120639
2418	0.00126825
2430	0.000649593
2442	0.000433062
2454	0.000371196
2466	0.000433062
2478	0.000804258
2490	0.000525861
2502	3.0933e-05
2514	0.000247464
2526	0.000649593
2538	0.000742392
2550	0.000711459
2562	0.00102079
2574	0.00111359
2586	0.00102079
2598	0.000742392
2610	0.000958923
2622	0.00061866
2634	0.00092799
2646	0.00105172
2658	0.00133012
2670	0.00142292
2682	0.00120639
2694	0.00142292
2706	0.00154665
2718	0.00269117
2730	0.00197971
2742	0.00250557
2754	0.00275304
2766	0.00284584
2778	0.00343356
2790	0.00386662
2802	0.00454715
2814	0.0057226
2826	0.00714552
2838	0.0100842
2850	0.015219
2862	0.0280253
2874	0.042007
2886	0.0386972
2898	0.0404604
2910	0.0514416
2922	0.059082
2934	0.065547
2946	0.0692899
2958	0.0932011
2970	0.102048
2982	0.0562362
2994	0.0386044
3006	0.0296647
3018	0.0132393
3030	0.00878497
3042	0.00723832
3054	0.00553701
3066	0.00423782
3078	0.00473275
3090	0.00365009
3102	0.00182505
3114	0.00225811
3126	0.000742392
3138	0.00154665
3150	0.00157758
3162	0.00154665
3174	0.00142292
3186	0.00117545
3198	0.00123732
3210	0.00145385
3222	0.000587727
3234	0.000989856
3246	0.000804258
3258	0.00061866
3270	0.00176318
3282	0.00102079
3294	0.00136105
3306	0.00108265
3318	0.00129919
3330	0.000742392
3342	0.00154665
3354	0.00173225
3366	0.00238184
3378	0.00194878
3390	0.00179411
3402	0.00173225
3414	0.00105172
3426	0.00188691
3438	0.00105172
3450	0.000897057
3462	0.00197971
3474	0.00253651
3486	0.00231997
3498	0.00191785
3510	0.00371196
3522	0.00284584
3534	0.00293863
3546	0.00204158
3558	0.00216531
3570	0.00201064
3582	0.00231997
3594	0.00173225
3606	0.00228904
3618	0.00191785
3630	0.000525861
3642	0.00244371
3654	0.00157758
3666	0.000897057
3678	0.00231997
3690	0.00160852
3702	0.00179411
3714	0.00238184
3726	0.00340263
3738	0.00238184
3750	0.00194878
3762	0.0029077
3774	0.00414502
3786	0.0032789
3798	0.00454715
3810	0.00216531
3822	0.00470182
3834	0.0028149
3846	0.00386662
3858	0.00454715
3870	0.0030005
3882	0.00494928
3894	0.00457808
3906	0.0034645
3918	0.00559887
3930	0.00303143
3942	0.0030005
3954	0.00423782
3966	0.00429969
