Infrared Spectrum: Methanone, cyclohexylphenyl-
Formula: C 13 H 16 O
CAS: 712-50-5
Origin: Sadtler Research Labs Under US-EPA Contract
1/CM	ABSORBANCE
450	0.011897
462	0.00817916
474	0.0107073
486	0.0171019
498	0.0221581
510	0.011897
522	0.0105586
534	0.00877401
546	0.00981499
558	0.00698946
570	0.00446136
582	0.0025281
594	0.0062459
606	0.00594848
618	0.0121944
630	0.0160609
642	0.0193326
654	0.0800071
666	0.144548
678	0.127
690	0.31289
702	0.29787
714	0.106627
726	0.0539825
738	0.0426803
750	0.0487775
762	0.0721253
774	0.0600796
786	0.0510082
798	0.0435726
810	0.0869965
822	0.0245375
834	0.0113021
846	0.0135328
858	0.0255785
870	0.0297424
882	0.0444649
894	0.04387
906	0.0260246
918	0.0316757
930	0.0377728
942	0.0413419
954	0.0716792
966	0.270507
978	0.348878
990	0.0474391
1002	0.0520492
1014	0.0400035
1026	0.0594848
1038	0.0310808
1050	0.0203735
1062	0.0171019
1074	0.0199274
1086	0.0145738
1098	0.0148712
1110	0.0150199
1122	0.0193326
1134	0.034055
1146	0.0358396
1158	0.0462494
1170	0.121646
1182	0.181429
1194	0.200018
1206	0.420111
1218	0.179049
1230	0.118821
1242	0.197787
1254	0.359288
1266	0.0838736
1278	0.0715305
1290	0.112872
1302	0.120754
1314	0.134138
1326	0.174737
1338	0.123282
1350	0.0484801
1362	0.095027
1374	0.164327
1386	0.0532389
1398	0.0257272
1410	0.0200761
1422	0.0227529
1434	0.0419368
1446	0.199423
1458	0.1905
1470	0.0652846
1482	0.0220094
1494	0.0136815
1506	0.00981499
1518	0.0104098
1530	0.0117482
1542	0.0111534
1554	0.0145738
1566	0.0214145
1578	0.0483314
1590	0.0582951
1602	0.0651359
1614	0.0300398
1626	0.0212658
1638	0.0173993
1650	0.0261733
1662	0.0505621
1674	0.0922014
1686	0.306793
1698	0.754565
1710	0.37297
1722	0.0932424
1734	0.0318244
1746	0.0132354
1758	0.0114508
1770	0.0132354
1782	0.0099637
1794	0.00892272
1806	0.018589
1818	0.011897
1830	0.00535363
1842	0.00327166
1854	0.00342038
1866	0.00386651
1878	0.00639462
1890	0.00936886
1902	0.0110047
1914	0.00803045
1926	0.0037178
1938	0.00535363
1950	0.0114508
1962	0.0127892
1974	0.00877401
1986	0.00282553
1998	0.00193326
2010	0.00208197
2022	0.0011897
2034	0.000594848
2046	0.000892272
2058	0.0011897
2070	0.00074356
2082	0
2094	0.000297424
2106	0.000594848
2118	0
2130	0.000446136
2142	0.000594848
2154	0.0011897
2166	0.00104098
2178	0.00193326
2190	0.0011897
2202	0.000594848
2214	0.0011897
2226	0.0011897
2238	0.00223068
2250	0.00133841
2262	0.00133841
2274	0.00104098
2286	0.00148712
2298	0.00267682
2310	0.00431265
2322	0.0074356
2334	0.0086253
2346	0.00966628
2358	0.00788174
2370	0.00579977
2382	0.00520492
2394	0.00386651
2406	0.00386651
2418	0.00312295
2430	0.00223068
2442	0.00163583
2454	0.0011897
2466	0.00148712
2478	0.00193326
2490	0.00193326
2502	0.00163583
2514	0.00133841
2526	0.00223068
2538	0.00178454
2550	0.00163583
2562	0.00223068
2574	0.00342038
2586	0.00520492
2598	0.00639462
2610	0.00579977
2622	0.00669204
2634	0.00684075
2646	0.00832787
2658	0.0127892
2670	0.0163583
2682	0.0126405
2694	0.00892272
2706	0.00803045
2718	0.00550234
2730	0.00535363
2742	0.00579977
2754	0.0062459
2766	0.00773302
2778	0.0114508
2790	0.016507
2802	0.020671
2814	0.0215632
2826	0.0272143
2838	0.0414906
2850	0.127595
2862	0.43989
2874	0.32791
2886	0.141574
2898	0.152876
2910	0.248795
2922	0.456695
2934	1.08218
2946	1.3564
2958	0.381892
2970	0.109006
2982	0.0429778
2994	0.0243888
3006	0.0229016
3018	0.0327166
3030	0.0585925
3042	0.0767354
3054	0.0673665
3066	0.134733
3078	0.155999
3090	0.108411
3102	0.0636487
3114	0.0254298
3126	0.0102611
3138	0.00728689
3150	0.00803045
3162	0.00951757
3174	0.00579977
3186	0.00297424
3198	0.00208197
3210	0.00223068
3222	0.00223068
3234	0.0025281
3246	0.00163583
3258	0.00163583
3270	0.00163583
3282	0.00178454
3294	0.00178454
3306	0.00193326
3318	0.00208197
3330	0.00193326
3342	0.00327166
3354	0.00520492
3366	0.00907143
3378	0.0127892
3390	0.00803045
3402	0.00356909
3414	0.0025281
3426	0.00282553
3438	0.00327166
3450	0.00386651
3462	0.00386651
3474	0.00237939
3486	0.00193326
3498	0.00133841
3510	0.00133841
3522	0.00074356
3534	0.000594848
3546	0.00148712
3558	0.00133841
3570	0.000892272
3582	0.00148712
3594	0.00074356
3606	0.00193326
3618	0.00178454
3630	0.00237939
3642	0.00267682
3654	0.00356909
3666	0.00356909
3678	0.00312295
3690	0.0025281
3702	0.00446136
3714	0.0049075
3726	0.00505621
3738	0.00386651
3750	0.00505621
3762	0.00327166
3774	0.00193326
3786	0.00342038
3798	0.00163583
3810	0.0037178
3822	0.00312295
3834	0.00312295
3846	0.00386651
3858	0.00327166
3870	0.0025281
3882	0.00342038
3894	0.00237939
3906	0.0037178
3918	0.00312295
3930	0.00208197
3942	0.00193326
3954	0.0049075
3966	0.00237939
