Infrared Spectrum: Ethanol, 2-[4-(1,1-dimethylethyl)phenoxy]-
Formula: C 12 H 18 O 2
CAS: 713-46-2
Origin: Sadtler Research Labs Under US-EPA Contract
1/CM	ABSORBANCE
450	0.00693279
462	0.0104579
474	0.0142181
486	0.00293762
498	0.012103
510	0.0226785
522	0.0293762
534	0.0514672
546	0.101994
558	0.112452
570	0.058635
582	0.0430068
594	0.0173907
606	0.00916539
618	0.0101054
630	0.011633
642	0.0129255
654	0.0216209
666	0.0327839
678	0.0337239
690	0.0110455
702	0.0047002
714	0.00493521
726	0.00293762
738	0.00869537
750	0.00763782
762	0.0110455
774	0.0238535
786	0.0518197
798	0.0642752
810	0.0793159
822	0.161452
834	0.213742
846	0.116095
858	0.0615726
870	0.0613376
882	0.0750857
894	0.10928
906	0.144061
918	0.123968
930	0.0623952
942	0.0391292
954	0.0314913
966	0.0323139
978	0.0378366
990	0.0521722
1002	0.0883638
1014	0.208219
1026	0.312211
1038	0.563906
1050	0.472488
1062	0.273199
1074	0.248288
1086	0.231837
1098	0.16768
1110	0.130783
1122	0.100349
1134	0.0747332
1146	0.0618076
1158	0.070268
1170	0.17708
1182	0.618664
1194	0.239475
1206	0.188126
1218	0.28589
1230	0.605386
1242	1.08986
1254	0.878937
1266	0.397049
1278	0.301753
1290	0.360623
1302	0.214917
1314	0.109985
1326	0.0849561
1338	0.0877762
1350	0.119855
1362	0.204341
1374	0.259569
1386	0.130196
1398	0.148526
1410	0.0903613
1422	0.0627477
1434	0.0524072
1446	0.081431
1458	0.203401
1470	0.201169
1482	0.198936
1494	0.249346
1506	0.663433
1518	0.83076
1530	0.127963
1542	0.0394817
1554	0.0371316
1566	0.047707
1578	0.0734406
1590	0.0984692
1602	0.177315
1614	0.211156
1626	0.0721481
1638	0.0278487
1650	0.0144531
1662	0.0143356
1674	0.00728531
1686	0.00317264
1698	0.00211509
1710	0.00846036
1722	0.00681529
1734	0.00223259
1746	0.012103
1758	0.0144531
1770	0.00681529
1782	0.00505272
1794	0.00340764
1806	0.00787283
1818	0.00822535
1830	0.00540523
1842	0.0070503
1854	0.012573
1866	0.0144531
1878	0.0186833
1890	0.0151581
1902	0.0129255
1914	0.0101054
1926	0.00951791
1938	0.0101054
1950	0.0105755
1962	0.0112805
1974	0.0102229
1986	0.00834285
1998	0.0071678
2010	0.00799034
2022	0.00998792
2034	0.0132781
2046	0.0137481
2058	0.0124555
2070	0.0124555
2082	0.0149231
2094	0.0132781
2106	0.00846036
2118	0.00669778
2130	0.00575774
2142	0.00505272
2154	0.00411267
2166	0.00376016
2178	0.00340764
2190	0.00305513
2202	0.00305513
2214	0.00270261
2226	0.00258511
2238	0.00199759
2250	0.00176257
2262	0.00282012
2274	0.00305513
2286	0.00587525
2298	0.00904789
2310	0.00987042
2322	0.00963541
2334	0.00423018
2346	0.000822535
2358	0.010928
2370	0.00023501
2382	0.00023501
2394	0.00540523
2406	0.00681529
2418	0.00681529
2430	0.00634527
2442	0.00446519
2454	0.0047002
2466	0.00423018
2478	0.00493521
2490	0.00552273
2502	0.00329014
2514	0.00458269
2526	0.00634527
2538	0.00752032
2550	0.00552273
2562	0.00423018
2574	0.00188008
2586	0.00223259
2598	0.00188008
2610	0.00023501
2622	0.00094004
2634	0.00223259
2646	0.00141006
2658	0.00423018
2670	0.00752032
2682	0.00834285
2694	0.0108105
2706	0.0129255
2718	0.0184483
2730	0.0189183
2742	0.0160982
2754	0.0153932
2766	0.0165682
2778	0.0173907
2790	0.0209159
2802	0.0220909
2814	0.0292587
2826	0.035839
2838	0.0464145
2850	0.0721481
2862	0.147116
2874	0.288592
2886	0.335477
2898	0.292587
2910	0.34805
2922	0.377896
2934	0.417613
2946	0.485531
2958	0.81572
2970	1.08539
2982	0.443934
2994	0.142299
3006	0.059575
3018	0.0425368
3030	0.0526422
3042	0.112687
3054	0.0914189
3066	0.0687404
3078	0.0605151
3090	0.0489996
3102	0.046767
3114	0.0312563
3126	0.0178608
3138	0.011163
3150	0.00622776
3162	0.00681529
3174	0.00822535
3186	0.00904789
3198	0.00646277
3210	0.00681529
3222	0.00693279
3234	0.00505272
3246	0.0048177
3258	0.00693279
3270	0.00916539
3282	0.0094004
3294	0.00611026
3306	0.00317264
3318	0.00211509
3330	0.00258511
3342	0.00305513
3354	0.00317264
3366	0.00446519
3378	0.00329014
3390	0.00399517
3402	0.00340764
3414	0.00411267
3426	0.00387766
3438	0.00340764
3450	0.000117505
3462	0.00305513
3474	0.00505272
3486	0.00340764
3498	0.00423018
3510	0.00352515
3522	0.00399517
3534	0.00329014
3546	0.00387766
3558	0.00223259
3570	0.00352515
3582	0.00434768
3594	0.00587525
3606	0.0105755
3618	0.0222084
3630	0.0509972
3642	0.0894213
3654	0.0504096
3666	0.0452394
3678	0.0316088
3690	0.0192708
3702	0.00575774
3714	0.00387766
3726	0.00152756
3738	0.00023501
3750	0.00023501
3762	0.00023501
3774	0.00023501
3786	0.00023501
3798	0.00023501
3810	0.00023501
3822	0.00023501
3834	0.00023501
3846	0.00023501
3858	0.00047002
3870	0.00023501
3882	0.00023501
3894	0.00164507
3906	0.00023501
3918	0.00023501
3930	0.00105755
3942	0.00681529
3954	0.00070503
3966	0.00399517
