Infrared Spectrum: Pentadecanoic acid, methyl ester
Formula: C 16 H 32 O 2
CAS: 7132-64-1
Origin: Sadtler Research Labs Under US-EPA Contract
1/CM	ABSORBANCE
450	0.00620039
462	0.0279855
474	0.0113953
486	0.0155848
498	0.0125683
510	0.0083789
522	0.0256394
534	0.018266
546	0.0241312
558	0.0120656
570	0.00921679
582	0.0112277
594	0.0212824
606	0.0232933
618	0.0154172
630	0.0108926
642	0.00368672
654	0.0199418
666	0.0147469
678	0.0102223
690	0.0145793
702	0.0231258
714	0.0340183
726	0.0351914
738	0.0315047
750	0.019439
762	0.0244664
774	0.0154172
786	0.019439
798	0.015082
810	0.0227906
822	0.0232933
834	0.0286558
846	0.0293261
858	0.0281531
870	0.0264773
882	0.0165902
894	0.0179308
906	0.0130711
918	0.0140766
930	0.0100547
942	0.0124008
954	0.0124008
966	0.0147469
978	0.0197742
990	0.0273152
1002	0.0460839
1014	0.0630093
1026	0.0668636
1038	0.057982
1050	0.0537925
1062	0.0512789
1074	0.0573117
1086	0.0599929
1098	0.0723937
1110	0.0958546
1122	0.110769
1134	0.131716
1146	0.193217
1158	0.277844
1170	0.341189
1182	0.317895
1194	0.280861
1206	0.265779
1218	0.240307
1230	0.230755
1242	0.234274
1254	0.218689
1266	0.169924
1278	0.129203
1290	0.109764
1302	0.106244
1314	0.102558
1326	0.0948491
1338	0.101385
1350	0.128365
1362	0.133392
1374	0.0960222
1386	0.0596578
1398	0.0340183
1410	0.0355265
1422	0.0494355
1434	0.118813
1446	0.155177
1458	0.159869
1470	0.132722
1482	0.0569765
1494	0.028991
1506	0.0184336
1518	0.0112277
1530	0.00955195
1542	0.00888163
1554	0.0113953
1566	0.0083789
1578	0.00620039
1590	0.00921679
1602	0.00754101
1614	0.00385429
1626	0.00770859
1638	0.00335156
1650	0.00402187
1662	0.00821132
1674	0.00636796
1686	0.00971952
1698	0.0160875
1710	0.0336832
1722	0.0697124
1734	0.151658
1746	0.303819
1758	0.57496
1770	0.395317
1782	0.183833
1794	0.061166
1806	0.0242988
1818	0.0134062
1830	0.00670312
1842	0.00452461
1854	0.00402187
1866	0.00351914
1878	0.00284883
1890	0.00318398
1902	0.0030164
1914	0.00251367
1926	0.00284883
1938	0.00318398
1950	0.00435703
1962	0.00368672
1974	0.00435703
1986	0.00469218
1998	0.00569765
2010	0.00586523
2022	0.00720585
2034	0.00737343
2046	0.00737343
2058	0.00670312
2070	0.00586523
2082	0.00469218
2094	0.00351914
2106	0.0030164
2118	0.00234609
2130	0.00217851
2142	0.00201094
2154	0.00201094
2166	0.00201094
2178	0.00201094
2190	0.00167578
2202	0.0015082
2214	0.00134062
2226	0.000670312
2238	0.00167578
2250	0.00167578
2262	0.00184336
2274	0.00201094
2286	0.00234609
2298	0.00335156
2310	0.00335156
2322	0.00234609
2334	0.00134062
2346	0.00268125
2358	0.0030164
2370	0.00251367
2382	0.00318398
2394	0.00234609
2406	0.00201094
2418	0.00268125
2430	0.00234609
2442	0.00234609
2454	0.00217851
2466	0.00201094
2478	0.00234609
2490	0.00234609
2502	0.00268125
2514	0.00351914
2526	0.00368672
2538	0.00418945
2550	0.00469218
2562	0.00519492
2574	0.00586523
2586	0.00653554
2598	0.00770859
2610	0.00871406
2622	0.00888163
2634	0.0098871
2646	0.0110601
2658	0.0124008
2670	0.0149144
2682	0.0160875
2694	0.0157523
2706	0.0145793
2718	0.013909
2730	0.0149144
2742	0.0164226
2754	0.0177633
2766	0.0209472
2778	0.024634
2790	0.0294937
2802	0.0358617
2814	0.0464191
2826	0.0660257
2838	0.101385
2850	0.229917
2862	0.626909
2874	0.466705
2886	0.30717
2898	0.302311
2910	0.495528
2922	0.932907
2934	1.67578
2946	1.05004
2958	0.615179
2970	0.496701
2982	0.226063
2994	0.129035
3006	0.0921679
3018	0.0695449
3030	0.0574793
3042	0.0420621
3054	0.0303316
3066	0.0229582
3078	0.0199418
3090	0.0174281
3102	0.0154172
3114	0.0135738
3126	0.0110601
3138	0.00955195
3150	0.0083789
3162	0.00787617
3174	0.00737343
3186	0.00636796
3198	0.00636796
3210	0.00519492
3222	0.00418945
3234	0.00385429
3246	0.00284883
3258	0.00368672
3270	0.00318398
3282	0.0030164
3294	0.00268125
3306	0.00335156
3318	0.00268125
3330	0.00268125
3342	0.00284883
3354	0.00318398
3366	0.00368672
3378	0.00335156
3390	0.00284883
3402	0.00251367
3414	0.00318398
3426	0.0030164
3438	0.00217851
3450	0.00318398
3462	0.00402187
3474	0.00385429
3486	0.0068707
3498	0.00787617
3510	0.00569765
3522	0.00418945
3534	0.00368672
3546	0.00469218
3558	0.00318398
3570	0.0068707
3582	0.00787617
3594	0.00402187
3606	0.00435703
3618	0.00469218
3630	0.00603281
3642	0.00519492
3654	0.00268125
3666	0.0083789
3678	0.00184336
3690	0.00167578
3702	0.00586523
3714	0.00335156
3726	0.00519492
3738	0.00385429
3750	0.00402187
3762	0.00519492
3774	0.00335156
3786	0.00670312
3798	0.0053625
3810	0.00603281
3822	0
3834	0.00452461
3846	0.00569765
3858	0.00134062
3870	0.0030164
3882	0.00569765
3894	0.00318398
3906	0.00284883
3918	0.00636796
3930	0.00553007
3942	0.00670312
3954	0.00418945
3966	0.0053625
