Infrared Spectrum: Vanillic acid, isobutyl ester
Formula: C 12 H 16 O 4
CAS: 7152-88-7
Origin: Sadtler Research Labs Under US-EPA Contract
1/CM	ABSORBANCE
450	0.0292788
462	0.0357105
474	0.0318707
486	0.0213111
498	0.0115195
510	0.00595175
522	0.00316787
534	0.00614374
546	0.00921562
558	0.0124795
570	0.0101756
582	0.00383984
594	0.00191992
606	0.00662372
618	0.00451181
630	0.0165113
642	0.0204471
654	0.00268789
666	0.000191992
678	0.0023039
690	0.00412783
702	0.00623974
714	0.00844765
726	0.0118075
738	0.0130555
750	0.0322547
762	0.116155
774	0.0999318
786	0.0315827
798	0.0386864
810	0.0215991
822	0.0227511
834	0.0319667
846	0.0139194
858	0.0144954
870	0.0227511
882	0.0345586
894	0.0277428
906	0.022847
918	0.0226551
930	0.023327
942	0.0319667
954	0.0275509
966	0.0301427
978	0.04915
990	0.114523
1002	0.0777568
1014	0.0456941
1026	0.0863964
1038	0.10214
1050	0.0527018
1062	0.0367665
1074	0.0591335
1086	0.186136
1098	0.270517
1110	0.173273
1122	0.118651
1134	0.0530858
1146	0.0412783
1158	0.0605735
1170	0.1079
1182	0.158009
1194	0.243446
1206	0.515595
1218	0.680036
1230	0.212247
1242	0.106172
1254	0.149082
1266	0.281172
1278	0.913306
1290	0.587208
1302	0.204855
1314	0.0906202
1326	0.047998
1338	0.0459821
1350	0.047326
1362	0.0678692
1374	0.135546
1386	0.0991639
1398	0.0492459
1410	0.0369585
1422	0.0741089
1434	0.15561
1446	0.0563497
1458	0.0862044
1470	0.116155
1482	0.0672932
1494	0.0648933
1506	0.2014
1518	0.199672
1530	0.0455021
1542	0.0180472
1554	0.0166073
1566	0.0172793
1578	0.0260149
1590	0.0688291
1602	0.13497
1614	0.10214
1626	0.0371505
1638	0.0158393
1650	0.0138234
1662	0.0151674
1674	0.0147834
1686	0.0177593
1698	0.0260149
1710	0.0435822
1722	0.145722
1734	0.401167
1746	0.195064
1758	0.0379184
1770	0.0265909
1782	0.0205431
1794	0.0139194
1806	0.0095996
1818	0.00671972
1830	0.00556777
1842	0.00537578
1854	0.00508779
1866	0.00566376
1878	0.00614374
1890	0.00796767
1902	0.00700771
1914	0.00556777
1926	0.00460781
1938	0.00393584
1950	0.00393584
1962	0.00412783
1974	0.00460781
1986	0.00508779
1998	0.0047038
2010	0.00441582
2022	0.00499179
2034	0.00595175
2046	0.00739169
2058	0.00748769
2070	0.00739169
2082	0.00681572
2094	0.00585576
2106	0.00537578
2118	0.0047998
2130	0.00441582
2142	0.0047998
2154	0.00431982
2166	0.00374384
2178	0.00364785
2190	0.00326386
2202	0.00316787
2214	0.00316787
2226	0.00316787
2238	0.00259189
2250	0.00316787
2262	0.0024959
2274	0.00287988
2286	0.00259189
2298	0.00153594
2310	0.00105596
2322	0.000191992
2334	0.000191992
2346	0.000191992
2358	0.000191992
2370	0.000191992
2382	0.00115195
2394	0.00355185
2406	0.00355185
2418	0.00364785
2430	0.00345586
2442	0.00316787
2454	0.00297588
2466	0.00307187
2478	0.00422382
2490	0.00499179
2502	0.00566376
2514	0.00566376
2526	0.00585576
2538	0.00585576
2550	0.00499179
2562	0.00460781
2574	0.00460781
2586	0.00393584
2598	0.00355185
2610	0.00355185
2622	0.00355185
2634	0.0047038
2646	0.00585576
2658	0.00652773
2670	0.00566376
2682	0.00393584
2694	0.00355185
2706	0.00412783
2718	0.00451181
2730	0.00566376
2742	0.00700771
2754	0.00623974
2766	0.00652773
2778	0.00652773
2790	0.0071037
2802	0.00748769
2814	0.0096956
2826	0.0134394
2838	0.0173753
2850	0.0277428
2862	0.0310067
2874	0.0375344
2886	0.0675812
2898	0.0638373
2910	0.0594215
2922	0.0630694
2934	0.0756448
2946	0.118363
2958	0.142362
2970	0.193624
2982	0.151674
2994	0.0438702
3006	0.0384944
3018	0.0431982
3030	0.0161273
3042	0.0104636
3054	0.00988759
3066	0.0121915
3078	0.0162233
3090	0.0158393
3102	0.00815966
3114	0.00652773
3126	0.00614374
3138	0.00527978
3150	0.00508779
3162	0.00451181
3174	0.00441582
3186	0.00451181
3198	0.0048958
3210	0.00412783
3222	0.00345586
3234	0.00259189
3246	0.00259189
3258	0.00335986
3270	0.00355185
3282	0.00307187
3294	0.00268789
3306	0.0024959
3318	0.00307187
3330	0.00355185
3342	0.00374384
3354	0.00316787
3366	0.00307187
3378	0.00307187
3390	0.00307187
3402	0.00307187
3414	0.00287988
3426	0.00297588
3438	0.00508779
3450	0.00508779
3462	0.00441582
3474	0.00307187
3486	0.00345586
3498	0.00364785
3510	0.00393584
3522	0.00460781
3534	0.00604775
3546	0.00902362
3558	0.0219831
3570	0.0976279
3582	0.177977
3594	0.0548137
3606	0.0111355
3618	0.0048958
3630	0.00287988
3642	0.00585576
3654	0.00460781
3666	0.00143994
3678	0.000671972
3690	0.000767968
3702	0.00211191
3714	0.00105596
3726	0.00153594
3738	0.000383984
3750	0.000767968
3762	0.00163193
3774	0.00105596
3786	0.00134394
3798	0.00143994
3810	0.00201592
3822	0.00201592
3834	0.00095996
3846	0.00201592
3858	0.00143994
3870	0.00153594
3882	0.00153594
3894	0.00220791
3906	0.00153594
3918	0.00201592
3930	0.00297588
3942	0.00268789
3954	0
3966	0.000191992
