Infrared Spectrum: 2-Bromobenzoyl chloride
Formula: C 7 H 4 Br Cl O
CAS: 7154-66-7
Origin: Sadtler Research Labs Under US-EPA Contract
1/CM	ABSORBANCE
450	0.0190362
462	0.029236
474	0.0566038
486	0.0233787
498	0.00706916
510	0.00449397
522	0.00121186
534	0.00454446
546	0.00302964
558	0.00201976
570	0.00282766
582	0.00217124
594	0.0016663
606	0.0033326
618	0.0075741
630	0.0358507
642	0.153502
654	0.0665006
666	0.0416576
678	0.10013
690	0.200916
702	0.0953327
714	0.050696
726	0.158804
738	0.0442327
750	0.0512514
762	0.15436
774	0.0289331
786	0.0111592
798	0.012371
810	0.0113612
822	0.0218639
834	0.0318112
846	0.0861428
858	0.251157
870	0.396529
882	0.331039
894	0.127447
906	0.0437783
918	0.0271658
930	0.021258
942	0.0220154
954	0.0186828
966	0.0114116
978	0.00848299
990	0.00792756
1002	0.00848299
1014	0.0118156
1026	0.0348914
1038	0.0686718
1050	0.0718025
1062	0.0438288
1074	0.0114116
1086	0.00696817
1098	0.0067157
1110	0.00989682
1122	0.0304479
1134	0.0383249
1146	0.0155522
1158	0.0271153
1170	0.0474644
1182	0.0820528
1194	0.204097
1206	0.168801
1218	0.0436773
1230	0.0185818
1242	0.012977
1254	0.0274182
1266	0.0566038
1278	0.0415566
1290	0.0145423
1302	0.00600879
1314	0.00494841
1326	0.0050494
1338	0.00560483
1350	0.0042415
1362	0.00328211
1374	0.0033831
1386	0.00323162
1398	0.00525138
1410	0.0101493
1422	0.0249945
1434	0.0788211
1446	0.050696
1458	0.0368606
1470	0.0729133
1482	0.0131789
1494	0.00631175
1506	0.00464545
1518	0.00570582
1530	0.00525138
1542	0.00494841
1554	0.00974534
1566	0.0276202
1578	0.0414556
1590	0.0588255
1602	0.0173699
1614	0.00691768
1626	0.00787706
1638	0.00358507
1650	0.00287816
1662	0.00247421
1674	0.00489792
1686	0.00570582
1698	0.0106542
1710	0.0182788
1722	0.0263579
1734	0.037517
1746	0.0484742
1758	0.0535236
1770	0.0690758
1782	0.117601
1794	0.277263
1806	0.50494
1818	0.197684
1830	0.0732668
1842	0.0285796
1854	0.0100483
1866	0.00515039
1878	0.00368606
1890	0.00484742
1902	0.00595829
1914	0.00515039
1926	0.008382
1938	0.0058573
1950	0.004191
1962	0.00616027
1974	0.00257519
1986	0.00126235
1998	0.000858398
2010	0.000959386
2022	0.000908892
2034	0.00131284
2046	0.00151482
2058	0.0016663
2070	0.0016663
2082	0.00146433
2094	0.00111087
2106	0.000807904
2118	0.000908892
2130	0.000858398
2142	0.000807904
2154	0.00075741
2166	0.00100988
2178	0.000656422
2190	0.000555434
2202	0.000807904
2214	0.000605928
2226	0.00100988
2238	0.00116136
2250	0.00146433
2262	0.00151482
2274	0.00116136
2286	0.00201976
2298	0.00242371
2310	0.00297915
2322	0.00277717
2334	0.0025247
2346	0.00358507
2358	0.00106037
2370	0.00403952
2382	0.00358507
2394	0.00075741
2406	0.000353458
2418	0
2430	0.000807904
2442	0.000908892
2454	0.00116136
2466	0.00156531
2478	0.00100988
2490	0.000959386
2502	0.000706916
2514	0.000454446
2526	0.000858398
2538	0.00111087
2550	0.0017168
2562	0.00176729
2574	0.00131284
2586	0.00141383
2598	0.00176729
2610	0.00151482
2622	0.00186828
2634	0.00217124
2646	0.00212075
2658	0.00141383
2670	0.0016663
2682	0.00161581
2694	0.00156531
2706	0.00146433
2718	0.00131284
2730	0.00217124
2742	0.00126235
2754	0.00242371
2766	0.00121186
2778	0.00282766
2790	0.00106037
2802	0.00161581
2814	0.000858398
2826	0.00116136
2838	0.00131284
2850	0.00161581
2862	0.00106037
2874	0.00075741
2886	0.000656422
2898	0.000908892
2910	0.000807904
2922	0.000353458
2934	0.000555434
2946	0.00348409
2958	0.00126235
2970	0.00161581
2982	0.00479693
2994	0.00302964
3006	0.00257519
3018	0.00287816
3030	0.00368606
3042	0.00262569
3054	0.00444347
3066	0.0194402
3078	0.0356993
3090	0.0225708
3102	0.00610977
3114	0.00267618
3126	0.00323162
3138	0.00409001
3150	0.00302964
3162	0.000959386
3174	0.00106037
3186	0.000959386
3198	0.000858398
3210	0.000706916
3222	0.000605928
3234	0.00100988
3246	0.000706916
3258	0.000807904
3270	0.00100988
3282	0.000908892
3294	0.00100988
3306	0.000807904
3318	0.00131284
3330	0.000858398
3342	0.000908892
3354	0.00111087
3366	0.00126235
3378	0.00131284
3390	0.00151482
3402	0.00111087
3414	0.00151482
3426	0.000807904
3438	0.00136334
3450	0.00116136
3462	0.00111087
3474	0.00141383
3486	0.00111087
3498	0.00161581
3510	0.0016663
3522	0.00277717
3534	0.00358507
3546	0.00403952
3558	0.00383754
3570	0.00313063
3582	0.00353458
3594	0.00368606
3606	0.00146433
3618	0.000555434
3630	0.000151482
3642	0.000656422
3654	0.00176729
3666	0.0016663
3678	0.000908892
3690	0.00201976
3702	0.00176729
3714	0.00191877
3726	0.00131284
3738	0.00237322
3750	0.00191877
3762	0.00242371
3774	0.00196927
3786	0.00186828
3798	0.00136334
3810	0.00191877
3822	0.000908892
3834	0.00111087
3846	0.00100988
3858	0.00222174
3870	0.00141383
3882	0.0016663
3894	0.00247421
3906	0.0017168
3918	0.00217124
3930	0.0016663
3942	0.00212075
3954	0.00277717
3966	0.00161581
