Infrared Spectrum: 3-Hepten-2-one, 5-ethyl-
Formula: C 9 H 16 O
CAS: 71648-42-5
Origin: Sadtler Research Labs Under US-EPA Contract
1/CM	ABSORBANCE
450	0.0072519
462	0.00628498
474	0.00763867
486	0.0146005
498	0.00444783
510	0.0024173
522	0.0193384
534	0.0228193
546	0.0308447
558	0.0436081
570	0.0397404
582	0.0369363
594	0.0414809
606	0.0515368
618	0.0233028
630	0.0218524
642	0.00212722
654	0.00415776
666	9.6692e-05
678	0.00348091
690	0.00783205
702	0.00705852
714	0.00531806
726	0.00860559
738	9.6692e-05
750	0.0110229
762	0.0163409
774	0.0316183
786	0.0383867
798	0.0234962
810	0.0132468
822	0.0147939
834	0.0157608
846	0.0172112
858	0.0214656
870	0.0201119
882	0.0187582
894	0.0180814
906	0.0206921
918	0.0251399
930	0.0423511
942	0.0790941
954	0.0882798
966	0.0915673
978	0.215817
990	0.214076
1002	0.0890533
1014	0.0590788
1026	0.0547277
1038	0.0538574
1050	0.0425445
1062	0.0286208
1074	0.0271705
1086	0.0303613
1098	0.0316183
1110	0.0322951
1122	0.0415776
1134	0.0670076
1146	0.119125
1158	0.144264
1170	0.157415
1182	0.185939
1194	0.0865393
1206	0.0629465
1218	0.0870228
1230	0.184778
1242	0.41945
1254	0.447877
1266	0.112549
1278	0.0943714
1290	0.137979
1302	0.117674
1314	0.100656
1326	0.118061
1338	0.10172
1350	0.210208
1362	0.396244
1374	0.265033
1386	0.140687
1398	0.0783205
1410	0.0517302
1422	0.0654605
1434	0.0724223
1446	0.0907938
1458	0.143201
1470	0.138656
1482	0.0632366
1494	0.0259135
1506	0.0227226
1518	0.0165343
1530	0.0146005
1542	0.0218524
1554	0.0209822
1566	0.0218524
1578	0.0327786
1590	0.0348091
1602	0.0523104
1614	0.0964019
1626	0.284274
1638	0.349735
1650	0.115837
1662	0.0858625
1674	0.115644
1686	0.378259
1698	0.855337
1710	0.501928
1722	0.343643
1734	0.182168
1746	0.0972722
1758	0.0497964
1770	0.0301679
1782	0.0204987
1794	0.0189516
1806	0.015084
1818	0.0112163
1830	0.00647836
1842	0.00309414
1854	0.00560814
1866	0.00193384
1878	0.00309414
1890	0.00174046
1902	0.00232061
1914	0.00135369
1926	0.00183715
1938	0.00280407
1950	0.00203053
1962	0.00280407
1974	0.00203053
1986	0.000580152
1998	0.00222392
2010	0.00348091
2022	0.00406106
2034	0.00560814
2046	0.00560814
2058	0.0059949
2070	0.0059949
2082	0.00493129
2094	0.0024173
2106	0.001257
2118	0.00135369
2130	0.00096692
2142	0.00328753
2154	0.00299745
2166	0.00251399
2178	0.00174046
2190	0.000870228
2202	0.00232061
2214	0.00174046
2226	0.00096692
2238	0.00096692
2250	0.00270738
2262	0.00299745
2274	0.00193384
2286	0.0036743
2298	0.00676844
2310	0.0084122
2322	0.00386768
2334	0.00377099
2346	0.00454452
2358	0.00183715
2370	0.00744528
2382	0.00889566
2394	0.00647836
2406	0.00502798
2418	0.00580152
2430	0.00473791
2442	0.00415776
2454	0.00522137
2466	0.00638167
2478	0.00638167
2490	0.0060916
2502	0.00638167
2514	0.00657506
2526	0.00551144
2538	0.00647836
2550	0.00802544
2562	0.00812213
2574	0.00899236
2586	0.0107328
2598	0.0107328
2610	0.00889566
2622	0.00638167
2634	0.00831551
2646	0.00879897
2658	0.010346
2670	0.0119898
2682	0.0149873
2694	0.0157608
2706	0.0132468
2718	0.0123766
2730	0.0151806
2742	0.0182748
2754	0.0189516
2766	0.0176946
2778	0.0196285
2790	0.0226259
2802	0.0243664
2814	0.0269771
2826	0.0301679
2838	0.0434147
2850	0.0709719
2862	0.16718
2874	0.286595
2886	0.371007
2898	0.26745
2910	0.220941
2922	0.371007
2934	0.599297
2946	0.504442
2958	0.392183
2970	0.870131
2982	0.71146
2994	0.181298
3006	0.121735
3018	0.122219
3030	0.0994961
3042	0.0842187
3054	0.0638167
3066	0.0455419
3078	0.0384834
3090	0.0339389
3102	0.0276539
3114	0.0201119
3126	0.015084
3138	0.0135369
3150	0.0121832
3162	0.0112163
3174	0.0118931
3186	0.0102494
3198	0.0129567
3210	0.00541475
3222	0.00280407
3234	0.0105394
3246	0.00744528
3258	0.00193384
3270	0.00734859
3282	0.00705852
3294	0.0110229
3306	0.00889566
3318	0.00899236
3330	0.0112163
3342	0.0121832
3354	0.011313
3366	0.0147939
3378	0.0172112
3390	0.0121832
3402	0.0139236
3414	0.0121832
3426	0.0133435
3438	0.00918574
3450	0.0084122
3462	0.00812213
3474	0.00425445
3486	0.00618829
3498	0.00618829
3510	0.0072519
3522	0.00628498
3534	0.00435114
3546	0.00309414
3558	0.000290076
3570	0.0060916
3582	0.00570483
3594	0.00338422
3606	0.00406106
3618	0.00473791
3630	0.0109262
3642	0.00106361
3654	0.00435114
3666	0.00754198
3678	0.00908905
3690	0.00870228
3702	0.00976589
3714	0.00831551
3726	0.00164376
3738	0.0107328
3750	0.0134402
3762	0.00928243
3774	0.0101527
3786	0.00812213
3798	0.00908905
3810	0.0108295
3822	0.00783205
3834	0.00628498
3846	0.00947582
3858	0.0105394
3870	0.0110229
3882	0.00541475
3894	0.00754198
3906	0.0072519
3918	0.0035776
3930	0.00551144
3942	0.00715521
3954	0.0109262
3966	0.00812213
