Infrared Spectrum: Acetophenone, 2-chloro-5-trifluoromethyl-,
Formula: C 9 H 6 Cl F 3 O
CAS: 71648-45-8
Origin: Sadtler Research Labs Under US-EPA Contract
1/CM	ABSORBANCE
450	0.0362394
462	0
474	0.0240086
486	0.0479039
498	0.0945621
510	0.0695343
522	0.0318227
534	0.025594
546	0.0280855
558	0.0372586
570	0.0596817
582	0.0723655
594	0.0491496
606	0.0306902
618	0.0360129
630	0.0108718
642	0.0172137
654	0.0221966
666	0.0224231
678	0.014156
690	0.0116645
702	0.0207244
714	0.00939958
726	0.059342
738	0.0450727
750	0.00690813
762	0.00996582
774	0.0152885
786	0.0135898
798	0.0122308
810	0.0166475
822	0.0681753
834	0.153225
846	0.0280855
858	0.0131368
870	0.0147222
882	0.0166475
894	0.0332949
906	0.0790471
918	0.0419018
930	0.0186859
942	0.0176667
954	0.0234423
966	0.030124
978	0.0254808
990	0.0186859
1002	0.0225364
1014	0.028765
1026	0.0419018
1038	0.116759
1050	0.180857
1062	0.0640984
1074	0.197165
1086	0.362507
1098	0.159227
1110	0.163304
1122	0.0878804
1134	0.148128
1146	0.712217
1158	0.942903
1170	0.341669
1182	0.76465
1194	0.218229
1206	0.197844
1218	0.399992
1230	0.639625
1242	0.26081
1254	0.170212
1266	0.475981
1278	0.215398
1290	0.137596
1302	0.0733847
1314	0.148921
1326	0.669522
1338	0.786847
1350	0.219588
1362	0.167494
1374	0.0810856
1386	0.0426945
1398	0.0380513
1410	0.0400898
1422	0.0423548
1434	0.040203
1446	0.0344274
1458	0.0356731
1470	0.0489231
1482	0.041109
1494	0.0198184
1506	0.0189124
1518	0.0175534
1530	0.0177799
1542	0.0201581
1554	0.0219701
1566	0.0317094
1578	0.0523206
1590	0.0467714
1602	0.0701005
1614	0.162964
1626	0.0489231
1638	0.0224231
1650	0.0246881
1662	0.0276325
1674	0.0339744
1686	0.0559445
1698	0.096374
1710	0.216077
1722	0.36681
1734	0.17293
1746	0.0790471
1758	0.0409958
1770	0.0241218
1782	0.0211774
1794	0.0194787
1806	0.016874
1818	0.0139295
1830	0.0125705
1842	0.0104188
1854	0.00815386
1866	0.00905984
1878	0.00928634
1890	0.00815386
1902	0.00973933
1914	0.015062
1926	0.0101923
1938	0.00713462
1950	0.00690813
1962	0.00724787
1974	0.00713462
1986	0.00724787
1998	0.00645514
2010	0.00656838
2022	0.00656838
2034	0.00577565
2046	0.00577565
2058	0.00622864
2070	0.00554915
2082	0.00498291
2094	0.0054359
2106	0.00498291
2118	0.00464317
2130	0.00475642
2142	0.00464317
2154	0.00577565
2166	0.00690813
2178	0.00554915
2190	0.00486966
2202	0.00498291
2214	0.00520941
2226	0.0058889
2238	0.00634189
2250	0.0054359
2262	0.0058889
2274	0.0056624
2286	0.00634189
2298	0.00758762
2310	0.00690813
2322	0.00747437
2334	0.00770086
2346	0.00532266
2358	0.00724787
2370	0.00532266
2382	0.00385043
2394	0.00351069
2406	0.00385043
2418	0.00362394
2430	0.00328419
2442	0.00373718
2454	0.00385043
2466	0.00396368
2478	0.00430342
2490	0.00452992
2502	0.00339744
2514	0.00339744
2526	0.00317094
2538	0.0028312
2550	0.00317094
2562	0.00362394
2574	0.00362394
2586	0.00339744
2598	0.00373718
2610	0.0030577
2622	0.00237821
2634	0.00294445
2646	0.00328419
2658	0.00396368
2670	0.00362394
2682	0.00385043
2694	0.00351069
2706	0.00294445
2718	0.0026047
2730	0.00215171
2742	0.0026047
2754	0.0028312
2766	0.00226496
2778	0.00181197
2790	0.00226496
2802	0.00215171
2814	0.00226496
2826	0.00215171
2838	0.00317094
2850	0.00317094
2862	0.0028312
2874	0.00294445
2886	0.00294445
2898	0.00294445
2910	0.00373718
2922	0.00577565
2934	0.00860685
2946	0.00860685
2958	0.00690813
2970	0.00815386
2982	0.0084936
2994	0.0100791
3006	0.012797
3018	0.0154017
3030	0.0105321
3042	0.00781411
3054	0.00702138
3066	0.00702138
3078	0.00928634
3090	0.00905984
3102	0.0058889
3114	0.00509616
3126	0.00407693
3138	0.00362394
3150	0.0030577
3162	0.00249146
3174	0.00317094
3186	0.00396368
3198	0.00339744
3210	0.00339744
3222	0.0028312
3234	0.00271795
3246	0.00317094
3258	0.0030577
3270	0.00317094
3282	0.00249146
3294	0.00271795
3306	0.00294445
3318	0.00294445
3330	0.00396368
3342	0.00328419
3354	0.00339744
3366	0.00373718
3378	0.00419018
3390	0.00407693
3402	0.00532266
3414	0.00792736
3426	0.00702138
3438	0.00634189
3450	0.0054359
3462	0.00373718
3474	0.00385043
3486	0.00351069
3498	0.00351069
3510	0.00339744
3522	0.0026047
3534	0.00203846
3546	0.00249146
3558	0.00249146
3570	0.0026047
3582	0.0026047
3594	0.00226496
3606	0.00249146
3618	0.0028312
3630	0.00249146
3642	0.0028312
3654	0.00158547
3666	0.00203846
3678	0.0030577
3690	0.00237821
3702	0.00158547
3714	0.00237821
3726	0.00124573
3738	0.00181197
3750	0.00113248
3762	0.00317094
3774	0.00169872
3786	0.0028312
3798	0.00226496
3810	0.00362394
3822	0.00135898
3834	0.00135898
3846	0.00339744
3858	0.00135898
3870	0.00169872
3882	0.00407693
3894	0.00271795
3906	0.00520941
3918	0.00271795
3930	0.00339744
3942	0.00464317
3954	0.00362394
3966	0.00656838
