Infrared Spectrum: Cyclohexanepropionic acid, 1-nitro methyl ester
Formula: C 10 H 17 N O 4
CAS: 71648-41-4
Origin: Sadtler Research Labs Under US-EPA Contract
1/CM	ABSORBANCE
450	0.047244
462	0.0137298
474	0.012877
486	0.00528724
498	0.0106598
510	0.0108303
522	0.00631057
534	0.0101481
546	0.00955114
558	0.011342
570	0.010745
582	0.00230251
594	0.0102334
606	0.0104039
618	0.00673696
630	0.0111714
642	0.0144973
654	0.0151795
666	0.0092953
678	0.00358168
690	0.00486085
702	0.00392279
714	0.00469029
726	0.00741919
738	0.00955114
750	0.0154353
762	0.0129623
774	0.0112567
786	0.00997753
798	0.0172262
810	0.0310412
822	0.0451121
834	0.0769208
846	0.105318
858	0.0568804
870	0.0354756
882	0.0408482
894	0.0494612
906	0.0384604
918	0.0266067
930	0.0189317
942	0.0103186
954	0.0135592
966	0.0235367
978	0.0308706
990	0.0522754
1002	0.0692457
1014	0.0654935
1026	0.0759827
1038	0.0764091
1050	0.0600357
1062	0.0436623
1074	0.0463912
1086	0.0471587
1098	0.0557718
1110	0.0788822
1122	0.107791
1134	0.145825
1146	0.198527
1158	0.297705
1170	0.433127
1182	0.456237
1194	0.355012
1206	0.300093
1218	0.270928
1230	0.276983
1242	0.262742
1254	0.235964
1266	0.198271
1278	0.171324
1290	0.177293
1302	0.210125
1314	0.188805
1326	0.175246
1338	0.220785
1350	0.221382
1362	0.171324
1374	0.178828
1386	0.125273
1398	0.0646407
1410	0.0508257
1422	0.0860455
1434	0.185224
1446	0.272037
1458	0.255919
1470	0.151965
1482	0.0639585
1494	0.0605474
1506	0.086813
1518	0.115893
1530	0.180107
1542	0.491628
1554	0.813126
1566	0.352113
1578	0.179084
1590	0.104124
1602	0.0617413
1614	0.0298473
1626	0.0116831
1638	0.0167998
1650	0.0085278
1662	0.00733391
1674	0.0143267
1686	0.0225134
1698	0.0268626
1710	0.035902
1722	0.0723157
1734	0.14864
1746	0.323459
1758	0.621762
1770	0.429545
1782	0.200233
1794	0.0805024
1806	0.0379487
1818	0.0188464
1830	0.0115978
1842	0.00869836
1854	0.00469029
1866	0.00537251
1878	0.00247306
1890	0.0034964
1902	0.00417862
1914	0.00417862
1926	0.00341112
1938	0.00383751
1950	0.00221723
1962	0.00341112
1974	0.00392279
1986	0.0034964
1998	0.00366695
2010	0.00443446
2022	0.00494612
2034	0.00588418
2046	0.00588418
2058	0.00554307
2070	0.00682224
2082	0.00451973
2094	0.00230251
2106	0.00238778
2118	0.00179084
2130	0.00102334
2142	0.00127917
2154	0.00102334
2166	0.000938058
2178	0.00196139
2190	0.00204667
2202	0.00170556
2214	0.001535
2226	0.00187612
2238	0.00230251
2250	0.00136445
2262	0.00136445
2274	0.00204667
2286	0.00170556
2298	0.00136445
2310	0.000596946
2322	8.5278e-05
2334	0.00110861
2346	0.000767502
2358	0.00230251
2370	0.00469029
2382	0.00588418
2394	0.00486085
2406	0.00307001
2418	0.00324056
2430	0.00307001
2442	0.00238778
2454	0.00221723
2466	0.00315529
2478	0.00307001
2490	0.00375223
2502	0.00221723
2514	0.00298473
2526	0.00307001
2538	0.00298473
2550	0.00289945
2562	0.0034964
2574	0.00417862
2586	0.00665168
2598	0.0069928
2610	0.00665168
2622	0.00571363
2634	0.00605474
2646	0.00827197
2658	0.0104039
2670	0.0149237
2682	0.0166292
2694	0.0131328
2706	0.0100628
2718	0.00912475
2730	0.00818669
2742	0.00818669
2754	0.0102334
2766	0.00946586
2778	0.0116831
2790	0.0139003
2802	0.0176525
2814	0.0215753
2826	0.0283976
2838	0.0482673
2850	0.0979844
2862	0.185053
2874	0.229995
2886	0.188805
2898	0.134739
2910	0.162199
2922	0.220444
2934	0.399272
2946	0.815172
2958	0.666277
2970	0.357997
2982	0.175843
2994	0.0896272
3006	0.0635321
3018	0.0469029
3030	0.0406776
3042	0.0304442
3054	0.0215753
3066	0.0180789
3078	0.0137298
3090	0.0127917
3102	0.0115125
3114	0.00963641
3126	0.00895419
3138	0.0057989
3150	0.00537251
3162	0.00554307
3174	0.00622529
3186	0.00486085
3198	0.00460501
3210	0.00409334
3222	0.00315529
3234	0.00255834
3246	0.00409334
3258	0.00486085
3270	0.00511668
3282	0.00417862
3294	0.00375223
3306	0.0050314
3318	0.00409334
3330	0.00358168
3342	0.00460501
3354	0.00332584
3366	0.00392279
3378	0.00332584
3390	0.00486085
3402	0.00341112
3414	0.00545779
3426	0.00315529
3438	0.00486085
3450	0.00417862
3462	0.00639585
3474	0.00656641
3486	0.00486085
3498	0.00921002
3510	0.00716335
3522	0.00622529
3534	0.0034964
3546	0.00204667
3558	0.00162028
3570	0.00665168
3582	0.00724863
3594	0.00238778
3606	0.00443446
3618	0.00366695
3630	0.00477557
3642	0.00409334
3654	0.00596946
3666	0.00358168
3678	0.00665168
3690	0.00921002
3702	0.00434918
3714	0.00562835
3726	0.00477557
3738	0.0057989
3750	0.00733391
3762	0.00562835
3774	0.00793085
3786	0.0050314
3798	0.00724863
3810	0.00324056
3822	0.00690752
3834	0.0102334
3846	0.00750446
3858	0.00869836
3870	0.00801613
3882	0.0042639
3894	0.00724863
3906	0.00375223
3918	0.00750446
3930	0.00946586
3942	0.00614002
3954	0.0109156
3966	0.00861308
