Infrared Spectrum: Benzene, 1-(4-chlorobutoxy)-3-methyl-
Formula: C 11 H 15 Cl O
CAS: 71648-39-0
Origin: Sadtler Research Labs Under US-EPA Contract
1/CM	ABSORBANCE
450	0.0580875
462	0.00676485
474	0.00929039
486	0.0130787
498	0.00595307
510	0.00487069
522	0.0117257
534	0.0167768
546	0.00721584
558	0.00676485
570	0.00604327
582	0.0127179
594	0.0110042
606	0.0225495
618	0.020024
630	0.0128081
642	0.0269692
654	0.0662053
666	0.0954295
678	0.0864999
690	0.171286
702	0.0826214
714	0.0691819
726	0.115544
738	0.130877
750	0.117708
762	0.207906
774	0.247594
786	0.145129
798	0.0563738
810	0.0372518
822	0.0316595
834	0.0417617
846	0.0565541
858	0.055562
870	0.0659347
882	0.0699936
894	0.0639504
906	0.0606131
918	0.0673779
930	0.0683701
942	0.0711662
954	0.0938059
966	0.103728
978	0.102285
990	0.106163
1002	0.117077
1014	0.134575
1026	0.159831
1038	0.24588
1050	0.330936
1062	0.331478
1074	0.222158
1086	0.123301
1098	0.0652132
1110	0.0403185
1122	0.0463618
1134	0.0844253
1146	0.312175
1158	0.837128
1170	0.40093
1182	0.128442
1194	0.0590797
1206	0.07288
1218	0.0900176
1230	0.138544
1242	0.369361
1254	0.801229
1266	0.795186
1278	0.571404
1290	0.56022
1302	0.316415
1314	0.208357
1326	0.148195
1338	0.0899274
1350	0.0640406
1362	0.0574561
1374	0.0784723
1386	0.1684
1398	0.110222
1410	0.0625974
1422	0.092002
1434	0.210071
1446	0.322187
1458	0.226036
1470	0.217648
1482	0.376667
1494	0.4371
1506	0.18662
1518	0.135477
1530	0.115904
1542	0.103457
1554	0.0940765
1566	0.140438
1578	0.335807
1590	0.53767
1602	0.561483
1614	0.415362
1626	0.151262
1638	0.0497893
1650	0.0254358
1662	0.0162356
1674	0.0241731
1686	0.027781
1698	0.0141611
1710	0.0120865
1722	0.0165964
1734	0.0174082
1746	0.0135297
1758	0.0105532
1770	0.00838841
1782	0.00604327
1794	0.00586287
1806	0.00766683
1818	0.00766683
1830	0.00965119
1842	0.00992178
1854	0.00595307
1866	0.00784723
1878	0.0101022
1890	0.0124473
1902	0.0137101
1914	0.0171376
1926	0.0138003
1938	0.00658445
1950	0.00505109
1962	0.00487069
1974	0.00532168
1986	0.00541188
1998	0.00523148
2010	0.00532168
2022	0.00613346
2034	0.00604327
2046	0.00613346
2058	0.00523148
2070	0.0046903
2082	0.00387851
2094	0.00351772
2106	0.00297653
2118	0.00360792
2130	0.00351772
2142	0.00378832
2154	0.0045099
2166	0.00568247
2178	0.00414911
2190	0.00279614
2202	0.00342752
2214	0.00270594
2226	0.00126277
2238	0.000360792
2250	0.000180396
2262	0
2274	0.00045099
2286	0.00171376
2298	0.00414911
2310	0.00595307
2322	0.00622366
2334	0.00496089
2346	0.00559228
2358	0.00279614
2370	0.00568247
2382	0.00568247
2394	0.0046903
2406	0.00685505
2418	0.00667465
2430	0.00658445
2442	0.00622366
2454	0.00496089
2466	0.00324713
2478	0.00243535
2490	0.00225495
2502	0.00288634
2514	0.00333733
2526	0.00541188
2538	0.00757663
2550	0.00739624
2562	0.00243535
2574	0.00171376
2586	0.00171376
2598	0.00207455
2610	0.00180396
2622	0.00144317
2634	0.00180396
2646	0.00207455
2658	0.00252554
2670	0.00333733
2682	0.00496089
2694	0.00676485
2706	0.00838841
2718	0.0106434
2730	0.0153337
2742	0.0226397
2754	0.0197534
2766	0.0146121
2778	0.0130787
2790	0.0123571
2802	0.015965
2814	0.0205651
2826	0.029134
2838	0.0443774
2850	0.0818998
2862	0.139897
2874	0.216205
2886	0.237221
2898	0.216024
2910	0.258778
2922	0.334364
2934	0.390918
2946	0.408417
2958	0.421766
2970	0.361874
2982	0.193655
2994	0.158478
3006	0.139897
3018	0.101383
3030	0.138454
3042	0.174172
3054	0.164702
3066	0.140258
3078	0.111846
3090	0.070174
3102	0.0440166
3114	0.0266084
3126	0.0114551
3138	0.00631386
3150	0.00324713
3162	0.00541188
3174	0.00496089
3186	0.00559228
3198	0.0046903
3210	0.00568247
3222	0.00667465
3234	0.00577267
3246	0.0046001
3258	0.00739624
3270	0.00586287
3282	0.00369812
3294	0.00360792
3306	0.00550208
3318	0.00306673
3330	0.00523148
3342	0.00568247
3354	0.0046001
3366	0.00378832
3378	0.00586287
3390	0.00288634
3402	0.00288634
3414	0.00396871
3426	0.00216475
3438	0.00153337
3450	0.00279614
3462	0.00423931
3474	0.00198436
3486	0.00198436
3498	0.00288634
3510	0.00378832
3522	0.00369812
3534	0.00216475
3546	0.00090198
3558	0.00171376
3570	0.00198436
3582	0.00108238
3594	0.0045099
3606	0.00423931
3618	0.00270594
3630	0.00640406
3642	0.00225495
3654	0.00333733
3666	0.0043295
3678	0.00487069
3690	0.00189416
3702	0.00279614
3714	0.00324713
3726	0.00288634
3738	0.00288634
3750	0.00505109
3762	0.00865901
3774	0.00234515
3786	0.00351772
3798	0.00559228
3810	0.00568247
3822	0.00658445
3834	0.00559228
3846	0.00487069
3858	0.00586287
3870	0.00847861
3882	0.00568247
3894	0.00847861
3906	0.00604327
3918	0.00685505
3930	0.00532168
3942	0.00865901
3954	0.00550208
3966	0.00847861
