Infrared Spectrum: 2,5-Cyclohexadiene-1,4-dione, 2,6-bis(1,1-dimethylethyl)-
Formula: C 14 H 20 O 2
CAS: 719-22-2
Origin: Sadtler Research Labs Under US-EPA Contract
1/CM	ABSORBANCE
450	0.0278219
462	0.0563324
474	0.100269
486	0.0294746
498	0.0275464
510	0.0238276
522	0.0247918
534	0.036499
546	0.0289237
558	0.0103299
570	0.00964124
582	0.0103299
594	0.0126713
606	0.0207975
618	0.0209353
630	0.0377386
642	0.0301633
654	0.0205221
666	0.00633567
678	0.0064734
690	0.00661114
702	0.0072998
714	0.0136355
726	0.0139109
738	0.0264445
750	0.0162524
762	0.00495835
774	0.0115695
786	0.0119827
798	0.023139
810	0.0223126
822	0.0254804
834	0.0971011
846	0.0472421
858	0.0173542
870	0.0152883
882	0.0115695
894	0.0123959
906	0.0612907
918	0.15605
930	0.086358
942	0.0274087
954	0.0122581
966	0.0144619
978	0.0152883
990	0.0163901
1002	0.0319538
1014	0.12327
1026	0.115695
1038	0.0404932
1050	0.044212
1062	0.109497
1074	0.265823
1086	0.080711
1098	0.0300256
1110	0.0224503
1122	0.0207975
1134	0.0194202
1146	0.0294746
1158	0.0515118
1170	0.170099
1182	0.221886
1194	0.0761658
1206	0.05344
1218	0.0654227
1230	0.205221
1242	0.359205
1254	0.245576
1266	0.0966879
1278	0.0366367
1290	0.021073
1302	0.0170788
1314	0.0278219
1326	0.0859448
1338	0.258798
1350	0.102748
1362	0.160871
1374	0.229737
1386	0.0648718
1398	0.107706
1410	0.0437988
1422	0.0341575
1434	0.0381518
1446	0.0450384
1458	0.111287
1470	0.141451
1482	0.1482
1494	0.0849806
1506	0.0482062
1518	0.0358103
1530	0.0265823
1542	0.0331934
1554	0.0216239
1566	0.0261691
1578	0.0614285
1590	0.190483
1602	0.180016
1614	0.0680396
1626	0.0691415
1638	0.111287
1650	0.315544
1662	1.36616
1674	0.534951
1686	0.159356
1698	0.0954483
1710	0.0415951
1722	0.0293369
1734	0.0342953
1746	0.0261691
1758	0.0206598
1770	0.0213485
1782	0.0179052
1794	0.0209353
1806	0.0187316
1818	0.0134977
1830	0.016941
1842	0.0162524
1854	0.00964124
1866	0.0117072
1878	0.0064734
1890	0.00785072
1902	0.00468289
1914	0.00537155
1926	0.00482062
1938	0.0038565
1950	0.00495835
1962	0.00633567
1974	0.0064734
1986	0.00468289
1998	0.00537155
2010	0.00592248
2022	0.00358103
2034	0.00358103
2046	0.0034433
2058	0.00220371
2070	0.00206598
2082	0.00289237
2094	0.00358103
2106	0.00358103
2118	0.00399423
2130	0.00330557
2142	0.00399423
2154	0.00468289
2166	0.00440742
2178	0.0034433
2190	0.00426969
2202	0.00523382
2214	0.00495835
2226	0.0038565
2238	0.00399423
2250	0.00413196
2262	0.0038565
2274	0.00454516
2286	0.00550928
2298	0.00633567
2310	0.00619794
2322	0.00564701
2334	0.00206598
2346	0.000964124
2358	0.00564701
2370	0.000964124
2382	0.000964124
2394	0.00509608
2406	0.00509608
2418	0.00454516
2430	0.00440742
2442	0.00316784
2454	0.00289237
2466	0.0034433
2478	0.00275464
2490	0.0038565
2502	0.00371876
2514	0.00454516
2526	0.00550928
2538	0.00426969
2550	0.00482062
2562	0.00633567
2574	0.00523382
2586	0.00550928
2598	0.00509608
2610	0.00523382
2622	0.00523382
2634	0.00537155
2646	0.00495835
2658	0.00399423
2670	0.00413196
2682	0.0038565
2694	0.00206598
2706	0.00123959
2718	0.0038565
2730	0.00482062
2742	0.00275464
2754	0.00454516
2766	0.00358103
2778	0.00358103
2790	0.00509608
2802	0.0030301
2814	0.0125336
2826	0.017492
2838	0.0192825
2850	0.0305765
2862	0.057572
2874	0.151092
2886	0.220233
2898	0.186489
2910	0.201364
2922	0.27147
2934	0.267338
2946	0.28359
2958	0.455617
2970	0.812481
2982	0.399698
2994	0.0939332
3006	0.138421
3018	0.0706565
3030	0.0228635
3042	0.0165278
3054	0.0172165
3066	0.0261691
3078	0.0202466
3090	0.0143241
3102	0.0129468
3114	0.0126713
3126	0.0140487
3138	0.015426
3150	0.0168033
3162	0.0104676
3174	0.011845
3186	0.0128091
3198	0.0100544
3210	0.00950351
3222	0.00757526
3234	0.00867712
3246	0.00785072
3258	0.00881485
3270	0.0147373
3282	0.0238276
3294	0.0163901
3306	0.0249295
3318	0.0207975
3330	0.00743753
3342	0.00619794
3354	0.00550928
3366	0.00454516
3378	0.00413196
3390	0.00509608
3402	0.00482062
3414	0.00413196
3426	0.00550928
3438	0.00482062
3450	0.00661114
3462	0.00537155
3474	0.00509608
3486	0.00619794
3498	0.00661114
3510	0.00550928
3522	0.00523382
3534	0.00482062
3546	0.00537155
3558	0.00413196
3570	0.00578474
3582	0.00468289
3594	0.00537155
3606	0.00358103
3618	0.00440742
3630	0.00550928
3642	0.00220371
3654	0.00234144
3666	0.00151505
3678	0.00192825
3690	0.00330557
3702	0.000964124
3714	0.00371876
3726	0.00192825
3738	0.000964124
3750	0.00468289
3762	0.000964124
3774	0.00123959
3786	0.00137732
3798	0.00192825
3810	0.00220371
3822	0.00234144
3834	0.00247918
3846	0.00206598
3858	0.00123959
3870	0.0034433
3882	0.00440742
3894	0.0030301
3906	0.0030301
3918	0.0030301
3930	0.00151505
3942	0.00220371
3954	0.00137732
3966	0.00137732
