Infrared Spectrum: Methoxychlor
Formula: C 16 H 15 Cl 3 O 2
CAS: 72-43-5
Origin: Sadtler Research Labs Under US-EPA Contract
1/CM	ABSORBANCE
450	0.0161866
462	0.0109497
474	0.0139649
486	0.0171387
498	0.0194398
510	0.0311036
522	0.0452272
534	0.056177
546	0.0971195
558	0.0959293
570	0.0826785
582	0.0806949
594	0.0255494
606	0.0237245
618	0.0515749
630	0.00230103
642	0.0116639
654	0.0186463
666	0.0338807
678	0.0176148
690	0.0179322
702	0.0331666
714	0.0517336
726	0.0261048
738	0.0391969
750	0.129969
762	0.0342775
774	0.0291993
786	0.0968021
798	0.216139
810	0.119098
822	0.140363
834	0.206538
846	0.0925174
858	0.087836
870	0.0935489
882	0.0237245
894	0.0249146
906	0.0117432
918	0.0134095
930	0.0193604
942	0.0161072
954	0.0222169
966	0.0309449
978	0.0281678
990	0.0321351
1002	0.0506227
1014	0.0992618
1026	0.204475
1038	0.223518
1050	0.0933902
1062	0.0374513
1074	0.0274537
1086	0.0303895
1098	0.0322145
1110	0.0658572
1122	0.047925
1134	0.0383241
1146	0.0434023
1158	0.079346
1170	0.324287
1182	0.266444
1194	0.0562563
1206	0.0465761
1218	0.0914066
1230	0.190351
1242	0.555739
1254	0.68793
1266	0.256446
1278	0.210267
1290	0.283027
1302	0.167658
1314	0.0652224
1326	0.0445925
1338	0.0388002
1350	0.0299134
1362	0.029358
1374	0.0255494
1386	0.0222962
1398	0.0261048
1410	0.0369752
1422	0.0403078
1434	0.0576052
1446	0.113227
1458	0.12251
1470	0.122034
1482	0.0866458
1494	0.149012
1506	0.547963
1518	0.304768
1530	0.0549074
1542	0.0474489
1554	0.0494326
1566	0.0681582
1578	0.102515
1590	0.154169
1602	0.306831
1614	0.203681
1626	0.0574465
1638	0.0397523
1650	0.0290406
1662	0.0187257
1674	0.0151551
1686	0.0142823
1698	0.0124573
1710	0.00856937
1722	0.00825198
1734	0.0119812
1746	0.0108704
1758	0.0129334
1770	0.0107911
1782	0.00928348
1794	0.0118226
1806	0.00936283
1818	0.00920414
1830	0.00968021
1842	0.0089661
1854	0.00944217
1866	0.0110291
1878	0.0142029
1890	0.014917
1902	0.00904544
1914	0.00682376
1926	0.00658572
1938	0.0060303
1950	0.00761722
1962	0.00674441
1974	0.00729983
1986	0.00777591
1998	0.00912479
2010	0.0100769
2022	0.0122193
2034	0.0138855
2046	0.0160279
2058	0.014679
2070	0.0124573
2082	0.0099976
2094	0.00658572
2106	0.0049988
2118	0.00372926
2130	0.00317384
2142	0.00245973
2154	0.00245973
2166	0.00285646
2178	0.00380861
2190	0.00269776
2202	0.00253907
2214	0.00277711
2226	0.00238038
2238	0.00230103
2250	0.00388795
2262	0.00484011
2274	0.00555422
2286	0.00777591
2298	0.0099976
2310	0.0119812
2322	0.0131714
2334	0.0122986
2346	0.0155518
2358	0.0184876
2370	0.014917
2382	0.0079346
2394	0.0029358
2406	0.00388795
2418	0.0049988
2430	0.00452272
2442	0.00364992
2454	0.00460207
2466	0.00460207
2478	0.0049988
2490	0.00547487
2502	0.0060303
2514	0.00745852
2526	0.00920414
2538	0.0116639
2550	0.00920414
2562	0.00610964
2574	0.00476076
2586	0.00452272
2598	0.00452272
2610	0.00412599
2622	0.00357057
2634	0.00388795
2646	0.00364992
2658	0.00277711
2670	0.00261842
2682	0.0029358
2694	0.00349122
2706	0.00579226
2718	0.0029358
2730	0.00698245
2742	0.00428468
2754	0.0100769
2766	0.00634768
2778	0.0117432
2790	0.0089661
2802	0.014679
2814	0.0176148
2826	0.0299134
2838	0.0777591
2850	0.0696658
2862	0.0354677
2874	0.0291993
2886	0.0335634
2898	0.0515749
2910	0.0722049
2922	0.0893436
2934	0.104261
2946	0.108942
2958	0.0988651
2970	0.0657778
2982	0.0507814
2994	0.052289
3006	0.077045
3018	0.0534792
3030	0.0364992
3042	0.0384035
3054	0.0277711
3066	0.0262635
3078	0.0256288
3090	0.0192017
3102	0.0172974
3114	0.0125367
3126	0.00849002
3138	0.00531618
3150	0.00333253
3162	0.00341188
3174	0.00214234
3186	0.00111084
3198	0.00285646
3210	0.00182496
3222	0
3234	0.00111084
3246	0.00134888
3258	0.00134888
3270	0.00150757
3282	0.00222169
3294	0.00182496
3306	0.00230103
3318	0.00126954
3330	0.00325319
3342	0.00166627
3354	0.00357057
3366	0.00277711
3378	0.00317384
3390	0.00452272
3402	0.00245973
3414	0.00364992
3426	0.00277711
3438	0.00238038
3450	0.00460207
3462	0.00404665
3474	0.00309449
3486	0.0039673
3498	0.00452272
3510	0.0039673
3522	0.00269776
3534	0.0039673
3546	0.00523684
3558	0.0049988
3570	0.00833133
3582	0.00650637
3594	0.00666506
3606	0.00729983
3618	0.00706179
3630	0.0122986
3642	0.0099976
3654	0.0112671
3666	0.00952152
3678	0.0126954
3690	0.0122986
3702	0.00888675
3714	0.0113465
3726	0.0116639
3738	0.0152344
3750	0.0142823
3762	0.0103943
3774	0.0114258
3786	0.010315
3798	0.0133301
3810	0.0141236
3822	0.0166627
3834	0.0147584
3846	0.0145203
3858	0.014917
3870	0.016504
3882	0.0175355
3894	0.0157899
3906	0.0178528
3918	0.0200745
3930	0.0172974
3942	0.0171387
3954	0.014441
3966	0.0151551
