Infrared Spectrum: Triazene, 1-(p-chlorophenyl)-3,3-dimethyl-
Formula: C 8 H 10 Cl N 3
CAS: 7203-90-9
Origin: Sadtler Research Labs Under US-EPA Contract
1/CM	ABSORBANCE
450	0
462	0.0130443
474	0.0145519
486	0.0205168
498	0.0273339
510	0.10383
522	0.0879668
534	0.0323812
546	0.0246464
558	0.0156662
570	0.0404437
582	0.026744
594	0.0065549
606	0.00471953
618	0.006686
630	0.0136997
642	0.0142241
654	0.0148141
666	0.0142241
678	0.0270717
690	0.0319879
702	0.0505383
714	0.0606328
726	0.0466053
738	0.073546
750	0.0413614
762	0.0304803
774	0.0145519
786	0.0201235
798	0.0243187
810	0.0407059
822	0.115563
834	0.153581
846	0.0576831
858	0.0195992
870	0.0102256
882	0.0114711
894	0.0130443
906	0.0395916
918	0.0752503
930	0.0169116
942	0.0127821
954	0.0132409
966	0.0197302
978	0.0231388
990	0.0300214
1002	0.0557167
1014	0.162627
1026	0.0998311
1038	0.104223
1050	0.156728
1062	0.306638
1074	0.489979
1086	0.440751
1098	0.296019
1110	0.0898021
1122	0.0700063
1134	0.0615505
1146	0.058142
1158	0.0879012
1170	0.0826573
1182	0.0789865
1194	0.0839027
1206	0.0904576
1218	0.075578
1230	0.0721039
1242	0.0636481
1254	0.0785277
1266	0.0998311
1278	0.0947183
1290	0.151287
1302	0.201629
1314	0.294839
1326	0.273405
1338	0.19763
1350	0.116677
1362	0.07761
1374	0.0745292
1386	0.127624
1398	0.227914
1410	0.145847
1422	0.19822
1434	0.113859
1446	0.192517
1458	0.54504
1470	0.57316
1482	0.511348
1494	0.289006
1506	0.109598
1518	0.05552
1530	0.0378873
1542	0.0315291
1554	0.0315946
1566	0.0357898
1578	0.0509971
1590	0.0559788
1602	0.0452288
1614	0.0272028
1626	0.0256952
1638	0.0273339
1650	0.0249742
1662	0.0173049
1674	0.015404
1686	0.0166494
1698	0.0201235
1710	0.0241876
1722	0.0276617
1734	0.031398
1746	0.0306769
1758	0.0163873
1770	0.014093
1782	0.0104878
1794	0.00865247
1806	0.00583386
1818	0.00478508
1830	0.00485063
1842	0.00537502
1854	0.0064238
1866	0.00819363
1878	0.0116022
1890	0.0144863
1902	0.00878357
1914	0.00412959
1926	0.00327745
1938	0.00301525
1950	0.0030808
1962	0.00288416
1974	0.00229422
1986	0.00222867
1998	0.00203202
2010	0.00249086
2022	0.00327745
2034	0.00380184
2046	0.0034741
2058	0.0032119
2070	0.00367074
2082	0.00288416
2094	0.00275306
2106	0.00288416
2118	0.0036052
2130	0.00445733
2142	0.00465398
2154	0.00478508
2166	0.00498172
2178	0.00386739
2190	0.0034741
2202	0.00281861
2214	0.00281861
2226	0.0032119
2238	0.0034741
2250	0.00465398
2262	0.00544057
2274	0.00596496
2286	0.00589941
2298	0.00576831
2310	0.00616161
2322	0.00367074
2334	0.00190092
2346	0.00786588
2358	0.00452288
2370	0.0096357
2382	0.00911131
2394	0.00583386
2406	0.00498172
2418	0.00419514
2430	0.0034741
2442	0.00380184
2454	0.00406404
2466	0.00504727
2478	0.00504727
2490	0.00498172
2502	0.00530947
2514	0.00563721
2526	0.0065549
2538	0.00721039
2550	0.00734149
2562	0.0068171
2574	0.00648935
2586	0.00622716
2598	0.0065549
2610	0.0062927
2622	0.00635825
2634	0.00662045
2646	0.0064238
2658	0.00747259
2670	0.00806253
2682	0.00832472
2694	0.00865247
2706	0.0097668
2718	0.0112089
2730	0.0142241
2742	0.0178949
2754	0.0243842
2766	0.0365108
2778	0.0509316
2790	0.068892
2802	0.0819363
2814	0.0827884
2826	0.088229
2838	0.104026
2850	0.11884
2862	0.136473
2874	0.137129
2886	0.133196
2898	0.144863
2910	0.165642
2922	0.173574
2934	0.185176
2946	0.191665
2958	0.157187
2970	0.116153
2982	0.0930796
2994	0.0820018
3006	0.0718417
3018	0.0641725
3030	0.0520459
3042	0.0531602
3054	0.0413614
3066	0.0402471
3078	0.0506038
3090	0.0540124
3102	0.038805
3114	0.0192059
3126	0.012061
3138	0.00924241
3150	0.00852137
3162	0.00734149
3174	0.00609606
3186	0.0062927
3198	0.00530947
3210	0.00471953
3222	0.00478508
3234	0.00485063
3246	0.00458843
3258	0.00432623
3270	0.00399849
3282	0.00419514
3294	0.00419514
3306	0.00340855
3318	0.00439178
3330	0.00419514
3342	0.00288416
3354	0.00406404
3366	0.00393294
3378	0.00367074
3390	0.00406404
3402	0.00517837
3414	0.00426069
3426	0.00550612
3438	0.00478508
3450	0.00432623
3462	0.00452288
3474	0.00485063
3486	0.00412959
3498	0.00445733
3510	0.00458843
3522	0.00432623
3534	0.00380184
3546	0.00380184
3558	0.0034741
3570	0.00367074
3582	0.00353965
3594	0.00426069
3606	0.0032119
3618	0.00393294
3630	0.00576831
3642	0.00609606
3654	0.00970125
3666	0.00589941
3678	0.00557167
3690	0.00452288
3702	0.00530947
3714	0.00544057
3726	0.00616161
3738	0.00570276
3750	0.00426069
3762	0.00406404
3774	0.00367074
3786	0.00380184
3798	0.00452288
3810	0.00242531
3822	0.00452288
3834	0.00373629
3846	0.00583386
3858	0.00485063
3870	0.00458843
3882	0.00445733
3894	0.00576831
3906	0.00426069
3918	0.00517837
3930	0.00550612
3942	0.00452288
3954	0.00412959
3966	0.00485063
