Infrared Spectrum: Benzene, 1-chloro-4-[(chloromethyl)thio]-
Formula: C 7 H 6 Cl 2 S
CAS: 7205-90-5
Origin: Sadtler Research Labs Under US-EPA Contract
1/CM	ABSORBANCE
450	0.0089931
462	0.00072525
474	0.0278496
486	0.0815906
498	0.146283
510	0.0793424
522	0.0256013
534	0.0630242
546	0.0440227
558	0.0101535
570	0.00471413
582	0.00340867
594	0.00282847
606	0.00362625
618	0.0147226
630	0.0185664
642	0.0356098
654	0.0938473
666	0.144687
678	0.0712196
690	0.0402514
702	0.0766589
714	0.190378
726	0.397655
738	0.269358
750	0.142294
762	0.0709295
774	0.037713
786	0.0386558
798	0.0766589
810	0.220549
822	0.282267
834	0.11546
846	0.05802
858	0.107555
870	0.0205971
882	0.0072525
894	0.00485918
906	0.00253837
918	0.00188565
930	0.0031911
942	0.00340867
954	0.00224828
966	0.00268343
978	0.00282847
990	0.00471413
1002	0.0249486
1014	0.337096
1026	0.037858
1038	0.0104436
1050	0.0162456
1062	0.0269793
1074	0.056497
1086	0.144687
1098	0.72525
1110	0.155203
1122	0.0469962
1134	0.0238607
1146	0.015883
1158	0.0125468
1170	0.0157379
1182	0.0271244
1194	0.0370603
1206	0.0353197
1218	0.108715
1230	0.312583
1242	0.0683911
1254	0.0206696
1266	0.0113139
1278	0.0081228
1290	0.0089931
1302	0.0081228
1314	0.00913815
1326	0.010081
1338	0.00950077
1350	0.00993592
1362	0.013127
1374	0.0291551
1386	0.0693339
1398	0.0747007
1410	0.0720173
1422	0.0416294
1434	0.0454007
1446	0.0438051
1458	0.0481566
1470	0.230122
1482	0.589628
1494	0.0496796
1506	0.0169708
1518	0.00877552
1530	0.00601958
1542	0.0084129
1554	0.0142149
1566	0.039091
1578	0.0794149
1590	0.0253112
1602	0.011604
1614	0.0108787
1626	0.017406
1638	0.0240058
1650	0.0128369
1662	0.00166807
1674	0.00108788
1686	0.00369878
1698	0.00747008
1710	0.0102986
1722	0.0144325
1734	0.011459
1746	0.0186389
1758	0.0136347
1770	0.0184213
1782	0.0145775
1794	0.00776018
1806	0.0037713
1818	0.00188565
1830	0.00239332
1842	0.00384382
1854	0.0034812
1866	0.0052218
1878	0.0098634
1890	0.0171884
1902	0.0180587
1914	0.00681735
1926	0.00210323
1938	0.00159555
1950	0.00159555
1962	0.0011604
1974	0.0008703
1986	0.0005802
1998	0.00159555
2010	0.00159555
2022	0.00123292
2034	0.00072525
2046	0.00108788
2058	0.00101535
2070	0.00152303
2082	0.00159555
2094	0.00166807
2106	0.00217575
2118	0.00268343
2130	0.00224828
2142	0.0011604
2154	0.00123292
2166	0.00166807
2178	0.00181313
2190	0.00210323
2202	0.0020307
2214	0.00224828
2226	0.00282847
2238	0.0026109
2250	0.00398888
2262	0.00456907
2274	0.0055119
2286	0.0060921
2298	0.00674483
2310	0.0066723
2322	0.00645472
2334	0.0060921
2346	0.005802
2358	0.00645472
2370	0.005802
2382	0.0055119
2394	0.00333615
2406	0.00246585
2418	0.00130545
2430	0.00123292
2442	0.00130545
2454	0.0020307
2466	0.0017406
2478	0.00166807
2490	0.00217575
2502	0.00268343
2514	0.00297352
2526	0.0026109
2538	0.00253837
2550	0.00355373
2562	0.00391635
2574	0.00442402
2586	0.00391635
2598	0.0040614
2610	0.002901
2622	0.0040614
2634	0.00507675
2646	0.00478665
2658	0.00565695
2670	0.005802
2682	0.0049317
2694	0.0037713
2706	0.00717997
2718	0.00456907
2730	0.0113139
2742	0.00761513
2754	0.0138523
2766	0.0112414
2778	0.0166082
2790	0.0081228
2802	0.0213949
2814	0.0141424
2826	0.0124743
2838	0.0072525
2850	0.00558443
2862	0.00892058
2874	0.00761513
2886	0.00616462
2898	0.0107337
2910	0.00776018
2922	0.00884805
2934	0.00747008
2946	0.0170434
2958	0.02901
2970	0.0456908
2982	0.0237882
2994	0.0118216
3006	0.00790523
3018	0.0151577
3030	0.0185664
3042	0.0130545
3054	0.0112414
3066	0.0145775
3078	0.0280672
3090	0.039236
3102	0.0176236
3114	0.00703493
3126	0.00427897
3138	0.002901
3150	0.00282847
3162	0.00195817
3174	0.0023208
3186	0.00246585
3198	0.00159555
3210	0.00159555
3222	0.00188565
3234	0.00224828
3246	0.00159555
3258	0.00159555
3270	0.0017406
3282	0.0014505
3294	0.0017406
3306	0.00130545
3318	0.0017406
3330	0.00130545
3342	0.00166807
3354	0.00282847
3366	0.0017406
3378	0.00181313
3390	0.00253837
3402	0.00210323
3414	0.00217575
3426	0.0023208
3438	0.0023208
3450	0.0023208
3462	0.00304605
3474	0.00304605
3486	0.00326363
3498	0.00275595
3510	0.00268343
3522	0.0023208
3534	0.00246585
3546	0.00253837
3558	0.00246585
3570	0.00297352
3582	0.0020307
3594	0.0031911
3606	0.00333615
3618	0.00297352
3630	0.00340867
3642	0.00282847
3654	0.002901
3666	0.0034812
3678	0.00326363
3690	0.00369878
3702	0.00333615
3714	0.00514928
3726	0.00420645
3738	0.00355373
3750	0.00384382
3762	0.00304605
3774	0.00369878
3786	0.0031911
3798	0.00333615
3810	0.00355373
3822	0.00478665
3834	0.00543937
3846	0.00485918
3858	0.00420645
3870	0.00449655
3882	0.0043515
3894	0.00340867
3906	0.00485918
3918	0.0026109
3930	0.00485918
3942	0.00355373
3954	0.0043515
3966	0.00326363
