Infrared Spectrum: 2-Octanone, oxime
Formula: C 8 H 17 N O
CAS: 7207-49-0
Origin: Sadtler Research Labs Under US-EPA Contract
1/CM	ABSORBANCE
450	0.0199615
462	0.0116983
474	0.00854165
486	0.00603486
498	0.00863449
510	0.00510642
522	0.00891302
534	0.0131838
546	0.0046422
558	0.0046422
570	0.0129982
582	0.0135552
594	0.0264605
606	0.0334238
618	0.049393
630	0.0520855
642	0.0465148
654	0.0171761
666	0.0173618
678	0.0208899
690	0.0253464
702	0.0309171
714	0.0402943
726	0.0453079
738	0.0292459
750	0.0207042
762	0.0193116
774	0.0156906
786	0.0180117
798	0.0231182
810	0.0216327
822	0.0219112
834	0.019033
846	0.0206114
858	0.0299886
870	0.0415941
882	0.0583989
894	0.0828168
906	0.162291
918	0.306107
930	0.315948
942	0.158856
954	0.0765963
966	0.0665691
978	0.0548708
990	0.0419655
1002	0.0417798
1014	0.0617413
1026	0.0798458
1038	0.0598844
1050	0.0311027
1062	0.0281317
1074	0.0295244
1086	0.043451
1098	0.089873
1110	0.137502
1122	0.0806814
1134	0.039273
1146	0.0272033
1158	0.0233038
1170	0.0313813
1182	0.0359306
1194	0.0402015
1206	0.0402015
1218	0.0213541
1230	0.0385303
1242	0.104449
1254	0.0867163
1266	0.0538495
1278	0.042244
1290	0.041037
1302	0.0480003
1314	0.0783603
1326	0.10872
1338	0.136852
1350	0.153564
1362	0.131189
1374	0.135274
1386	0.0899658
1398	0.0408514
1410	0.0288745
1422	0.0330525
1434	0.0585846
1446	0.0957222
1458	0.119305
1470	0.107606
1482	0.0512499
1494	0.0234895
1506	0.0176404
1518	0.014298
1530	0.0106771
1542	0.00798458
1554	0.00557064
1566	0.00454936
1578	0.00436367
1590	0.00362092
1602	0.00408514
1614	0.00371376
1626	0.00427082
1638	0.0069633
1650	0.0169905
1662	0.0233038
1674	0.0112341
1686	0.00362092
1698	0.00222826
1710	0.00167119
1722	0.00269248
1734	0.00529211
1746	0.0038066
1758	0.000649908
1770	0.00046422
1782	0.000835596
1794	0.0014855
1806	0.0014855
1818	0.00185688
1830	0.00185688
1842	0.00185688
1854	0.00157835
1866	0.000371376
1878	0.000185688
1890	0.000185688
1902	0.000185688
1914	0.000742752
1926	0.000742752
1938	0.000649908
1950	0.000835596
1962	0.00102128
1974	0.00111413
1986	0.00129982
1998	0.00139266
2010	0.00139266
2022	0.00176404
2034	0.00213541
2046	0.00194972
2058	0.00185688
2070	0.0014855
2082	0.00111413
2094	0.00092844
2106	0.00129982
2118	0.00102128
2130	0.00102128
2142	0.00139266
2154	0.0014855
2166	0.00167119
2178	0.00167119
2190	0.00176404
2202	0.00120697
2214	0.00102128
2226	0.00129982
2238	0.00185688
2250	0.00222826
2262	0.00269248
2274	0.00269248
2286	0.00250679
2298	0.00278532
2310	0.0031567
2322	0.00352807
2334	0.00306385
2346	0.00241394
2358	0.00371376
2370	0.00297101
2382	0.00278532
2394	0.00222826
2406	0.00250679
2418	0.00287816
2430	0.00259963
2442	0.00278532
2454	0.00250679
2466	0.00241394
2478	0.00269248
2490	0.00297101
2502	0.0031567
2514	0.00324954
2526	0.00399229
2538	0.00510642
2550	0.00566348
2562	0.00677761
2574	0.00798458
2586	0.00863449
2598	0.0084488
2610	0.00854165
2622	0.00956293
2634	0.0103057
2646	0.0110484
2658	0.0127196
2670	0.0139266
2682	0.0145765
2694	0.0134624
2706	0.0126268
2718	0.0126268
2730	0.0131838
2742	0.0151336
2754	0.0154121
2766	0.0144837
2778	0.0154121
2790	0.0192187
2802	0.0243251
2814	0.0311027
2826	0.0427082
2838	0.0676833
2850	0.145022
2862	0.325604
2874	0.382053
2886	0.318176
2898	0.26117
2910	0.359863
2922	0.603115
2934	0.910243
2946	0.800222
2958	0.602558
2970	0.654829
2982	0.286424
2994	0.127196
3006	0.0905229
3018	0.0596987
3030	0.046422
3042	0.037509
3054	0.0319383
3066	0.0269248
3078	0.0222826
3090	0.0182903
3102	0.0155049
3114	0.0138338
3126	0.0127196
3138	0.0116983
3150	0.0107699
3162	0.00984146
3174	0.00965578
3186	0.00947009
3198	0.00909871
3210	0.00817027
3222	0.00733468
3234	0.00742752
3246	0.00733468
3258	0.00752036
3270	0.00826312
3282	0.0106771
3294	0.0105842
3306	0.00900587
3318	0.00742752
3330	0.00733468
3342	0.00761321
3354	0.00770605
3366	0.00798458
3378	0.00752036
3390	0.00770605
3402	0.00789174
3414	0.00724183
3426	0.00668477
3438	0.0069633
3450	0.00668477
3462	0.00631339
3474	0.00668477
3486	0.00622055
3498	0.00557064
3510	0.00603486
3522	0.00603486
3534	0.00677761
3546	0.0038066
3558	0.00492073
3570	0.00278532
3582	0.00761321
3594	0.00687046
3606	0.0123483
3618	0.0231182
3630	0.0651765
3642	0.278996
3654	0.469605
3666	0.112248
3678	0.0235824
3690	0.0123483
3702	0.0112341
3714	0.00371376
3726	0.00259963
3738	0.00102128
3750	0
3762	0.00603486
3774	0.00807743
3786	0.00687046
3798	0.00594202
3810	0.00640624
3822	0.00343523
3834	0.00501358
3846	0.00640624
3858	0.00436367
3870	0.00482789
3882	0.00352807
3894	0.00687046
3906	0.00185688
3918	0.0069633
3930	0.0077989
3942	0.00770605
3954	0.0092844
3966	0.00974862
