Infrared Spectrum: p-Propoxynitrobenzene
Formula: C 9 H 11 N O 3
CAS: 7244-77-1
Origin: Sadtler Research Labs Under US-EPA Contract
1/CM	ABSORBANCE
450	0.00499173
462	0.0101261
474	0.010554
486	0.0221063
498	0.0345143
510	0.0303783
522	0.0202522
534	0.0081294
546	0.00356552
558	0.00456387
570	0.00484911
582	0.00142621
594	0.00370815
606	0.0164014
618	0.0512009
630	0.0567632
642	0.0734498
654	0.143191
666	0.0279537
678	0.0397913
690	0.0547665
702	0.0292373
714	0.0118375
726	0.00855726
738	0.0357979
750	0.106538
762	0.058332
774	0.00855726
786	0.0101261
798	0.0122654
810	0.0121228
822	0.0315192
834	0.131782
846	0.27098
858	0.381369
870	0.133921
882	0.0273832
894	0.0249587
906	0.0252439
918	0.021821
930	0.0192538
942	0.0258144
954	0.0382224
966	0.0994068
978	0.270267
990	0.163729
1002	0.10882
1014	0.150608
1026	0.103115
1038	0.103971
1050	0.141195
1062	0.157026
1074	0.102117
1086	0.0586172
1098	0.113384
1110	0.367392
1122	0.18612
1134	0.0497747
1146	0.0420732
1158	0.0847169
1170	0.354841
1182	0.121513
1194	0.0606139
1206	0.0711679
1218	0.159165
1230	0.392208
1242	0.698415
1254	1.21599
1266	1.03329
1278	0.351561
1290	0.291517
1302	0.300645
1314	0.204519
1326	0.347853
1338	0.576902
1350	1.4071
1362	0.521708
1374	0.233613
1386	0.150465
1398	0.133351
1410	0.057191
1422	0.0557648
1434	0.0690286
1446	0.0825776
1458	0.150608
1470	0.235753
1482	0.270552
1494	0.630242
1506	0.549661
1518	0.326745
1530	0.76074
1542	0.8717
1554	0.329882
1566	0.144475
1578	0.200668
1590	0.670319
1602	0.919335
1614	0.431714
1626	0.1556
1638	0.057191
1650	0.0470649
1662	0.0233898
1674	0.0266701
1686	0.031234
1698	0.0309488
1710	0.0115523
1722	0.0154031
1734	0.0285242
1746	0.0212505
1758	0.0213931
1770	0.022962
1782	0.0112671
1794	0.0132638
1806	0.00713105
1818	0.00570484
1830	0.0109818
1842	0.00784416
1854	0.00313766
1866	0.00984085
1878	0.00770153
1890	0.0149752
1902	0.0162588
1914	0.0171145
1926	0.0104113
1938	0.00599008
1950	0.00656057
1962	0.00713105
1974	0.00713105
1986	0.00456387
1998	0.00470649
2010	0.00641795
2022	0.00827202
2034	0.00641795
2046	0.00570484
2058	0.00556222
2070	0.00627532
2082	0.00456387
2094	0.00399339
2106	0.00427863
2118	0.00513436
2130	0.00385077
2142	0.00171145
2154	0.00114097
2166	0.000570484
2178	0.000427863
2190	0.000713105
2202	0.00185407
2214	0.00313766
2226	0.00299504
2238	0.00228194
2250	0.00142621
2262	0.00213932
2274	0.00285242
2286	0.00356552
2298	0.00242456
2310	0.00142621
2322	0
2334	0
2346	0.000427863
2358	0
2370	0.00156883
2382	0.00470649
2394	0.00584746
2406	0.00656057
2418	0.00584746
2430	0.00641795
2442	0.00841464
2454	0.0138342
2466	0.0148326
2478	0.00941299
2490	0.00841464
2502	0.0106966
2514	0.00969823
2526	0.00713105
2538	0.00798678
2550	0.0114097
2562	0.0118375
2574	0.0112671
2586	0.0118375
2598	0.00955561
2610	0.00955561
2622	0.0088425
2634	0.00755891
2646	0.00770153
2658	0.0054196
2670	0.00484911
2682	0.0054196
2694	0.0054196
2706	0.00684581
2718	0.00670319
2730	0.00755891
2742	0.00927037
2754	0.0128359
2766	0.0129785
2778	0.0116949
2790	0.0104113
2802	0.00927037
2814	0.0115523
2826	0.016544
2838	0.0239603
2850	0.0376519
2862	0.0644647
2874	0.0969823
2886	0.142764
2898	0.155314
2910	0.132067
2922	0.147613
2934	0.184409
2946	0.22634
2958	0.219208
2970	0.260426
2982	0.320327
2994	0.158737
3006	0.0480633
3018	0.0258144
3030	0.0192538
3042	0.01469
3054	0.0145473
3066	0.0175424
3078	0.0236751
3090	0.0514862
3102	0.0279537
3114	0.00869988
3126	0.00656057
3138	0.00385077
3150	0.0034229
3162	0.00328028
3174	0.00356552
3186	0.00370815
3198	0.0054196
3210	0.00641795
3222	0.00713105
3234	0.00484911
3246	0.0061327
3258	0.00470649
3270	0.00499173
3282	0.00385077
3294	0.0034229
3306	0.00499173
3318	0.00370815
3330	0.00470649
3342	0.00456387
3354	0.00385077
3366	0.0054196
3378	0.00627532
3390	0.00442125
3402	0.00470649
3414	0.0054196
3426	0.00513436
3438	0.00427863
3450	0.0054196
3462	0.00484911
3474	0.00570484
3486	0.0054196
3498	0.00470649
3510	0.00470649
3522	0.00413601
3534	0.00385077
3546	0.00313766
3558	0.00413601
3570	0.00199669
3582	0.00499173
3594	0.00199669
3606	0.00256718
3618	0.00242456
3630	0.0034229
3642	0.00256718
3654	0.00470649
3666	0.00427863
3678	0.00313766
3690	0.00656057
3702	0.00299504
3714	0.00370815
3726	0.00256718
3738	0.00413601
3750	0.00128359
3762	0.00370815
3774	0.00114097
3786	0.00142621
3798	0.00627532
3810	0.0027098
3822	0.00599008
3834	0.00256718
3846	0.0027098
3858	0.00328028
3870	0.00527698
3882	0.00228194
3894	0.0027098
3906	0.00213932
3918	0.00656057
3930	0.00413601
3942	0.00385077
3954	0.0027098
3966	0.00570484
