Infrared Spectrum: Butyl 4-nitrophenyl ether
Formula: C 10 H 13 N O 3
CAS: 7244-78-2
Origin: Sadtler Research Labs Under US-EPA Contract
1/CM	ABSORBANCE
450	0.0108349
462	0.00547834
474	0.00438268
486	0.0105915
498	0.023496
510	0.0226438
522	0.0160698
534	0.0074262
546	0.00499138
558	0.00146089
570	0.00231308
582	0.00401745
594	0.00450442
606	0.016435
618	0.0423659
630	0.0382267
642	0.0630618
654	0.114437
666	0.0259308
678	0.0326266
690	0.0460181
702	0.0237395
714	0.00937406
726	0.00840013
738	0.0320179
750	0.0937406
762	0.0483312
774	0.0154611
786	0.0130263
798	0.0112002
810	0.00998276
822	0.026783
834	0.0994624
846	0.237273
858	0.294005
870	0.118819
882	0.0759664
894	0.0244699
906	0.0160698
918	0.00706098
930	0.00766968
942	0.0196003
954	0.0426093
966	0.0745055
978	0.0915492
990	0.0721924
1002	0.104089
1014	0.165811
1026	0.192716
1038	0.12588
1050	0.05734
1062	0.0941058
1074	0.101045
1086	0.0616009
1098	0.0978798
1110	0.294005
1122	0.150472
1134	0.0361571
1146	0.033357
1158	0.0712185
1170	0.320909
1182	0.109567
1194	0.0590444
1206	0.0799838
1218	0.187968
1230	0.347692
1242	0.63001
1254	1.18807
1266	0.783525
1278	0.251517
1290	0.249326
1302	0.262474
1314	0.190646
1326	0.28877
1338	0.516912
1350	1.21741
1362	0.420372
1374	0.204525
1386	0.136837
1398	0.0861926
1410	0.0423659
1422	0.0455311
1434	0.0625749
1446	0.070975
1458	0.116871
1470	0.238004
1482	0.253465
1494	0.535052
1506	0.478199
1518	0.291935
1530	0.65314
1542	0.71815
1554	0.260647
1566	0.133793
1578	0.187116
1590	0.620757
1602	0.744568
1614	0.350492
1626	0.115045
1638	0.0420006
1650	0.0349397
1662	0.0163133
1674	0.016922
1686	0.0172872
1698	0.0180177
1710	0.00633053
1722	0.00888709
1734	0.0191133
1746	0.0163133
1758	0.0186264
1770	0.017409
1782	0.00779142
1794	0.00973928
1806	0.00462616
1818	0.00158263
1830	0.00486964
1842	0.00377397
1854	0.000730446
1866	0.00523486
1878	0.00560009
1890	0.0121741
1902	0.0125393
1914	0.0120524
1926	0.0068175
1938	0.00292178
1950	0.00365223
1962	0.00523486
1974	0.00620879
1986	0.00523486
1998	0.00633053
2010	0.00730446
2022	0.00827839
2034	0.00827839
2046	0.00961754
2058	0.00779142
2070	0.00486964
2082	0.00365223
2094	0.00365223
2106	0.00377397
2118	0.00450442
2130	0.00280004
2142	0.00146089
2154	0.000730446
2166	0.000121741
2178	0.000121741
2190	0
2202	0.000852187
2214	0.00170437
2226	0.00231308
2238	0.00158263
2250	0.000973928
2262	0.00158263
2274	0.00304353
2286	0.0047479
2298	0.00596531
2310	0.00718272
2322	0.0047479
2334	0.00243482
2346	0.00560009
2358	0.00523486
2370	0.00645227
2382	0.00876535
2394	0.00645227
2406	0.00560009
2418	0.00523486
2430	0.00560009
2442	0.00766968
2454	0.0125393
2466	0.0135133
2478	0.00986102
2490	0.00876535
2502	0.00986102
2514	0.00864361
2526	0.00693924
2538	0.00815665
2550	0.0110784
2562	0.0116871
2574	0.0115654
2586	0.0121741
2598	0.0105915
2610	0.0105915
2622	0.00925232
2634	0.00791316
2646	0.00766968
2658	0.00620879
2670	0.00645227
2682	0.0068175
2694	0.00766968
2706	0.0094958
2718	0.00913058
2730	0.00961754
2742	0.0118089
2754	0.0143654
2766	0.0133915
2778	0.0120524
2790	0.0127828
2802	0.0142437
2814	0.0171655
2826	0.0225221
2838	0.0312874
2850	0.051253
2862	0.0781577
2874	0.13148
2886	0.192107
2898	0.154368
2910	0.153759
2922	0.195273
2934	0.241047
2946	0.334909
2958	0.307761
2970	0.386284
2982	0.255778
2994	0.0924014
3006	0.0465051
3018	0.0304353
3030	0.023009
3042	0.0180177
3054	0.0172872
3066	0.0189916
3078	0.0245917
3090	0.0473572
3102	0.0228873
3114	0.00998276
3126	0.0068175
3138	0.00499138
3150	0.00426093
3162	0.00365223
3174	0.00365223
3186	0.00426093
3198	0.00547834
3210	0.00657401
3222	0.00499138
3234	0.0026783
3246	0.00219134
3258	0.00158263
3270	0.00170437
3282	0.00109567
3294	0.00158263
3306	0.000608705
3318	0.00109567
3330	0.00121741
3342	0.000973928
3354	0.000852187
3366	0.000973928
3378	0.00109567
3390	0.00109567
3402	0.00133915
3414	0.00133915
3426	0.00121741
3438	0.00109567
3450	0.00121741
3462	0.00121741
3474	0.000730446
3486	0.000973928
3498	0.00146089
3510	0.00133915
3522	0.000973928
3534	0.000973928
3546	0.000852187
3558	0.00121741
3570	0.00219134
3582	0.00146089
3594	0.00133915
3606	0.000973928
3618	0.00133915
3630	0.00158263
3642	0.00182611
3654	0.0020696
3666	0.00194786
3678	0.00280004
3690	0.00292178
3702	0.00158263
3714	0.00182611
3726	0.00231308
3738	0.00292178
3750	0.00219134
3762	0.00158263
3774	0.00146089
3786	0.00170437
3798	0.00133915
3810	0.00194786
3822	0.00243482
3834	0.00182611
3846	0.0020696
3858	0.00243482
3870	0.00255656
3882	0.00280004
3894	0.00243482
3906	0.00255656
3918	0.0020696
3930	0.00219134
3942	0.00194786
3954	0.00182611
3966	0.00121741
