Infrared Spectrum: Methane, bis(p-methoxyphenyl)-,
Formula: C 15 H 16 O 2
CAS: 726-18-1
Origin: Sadtler Research Labs Under US-EPA Contract
1/CM	ABSORBANCE
450	0.00435934
462	0.00371008
474	0.00667814
486	0.0067709
498	0.0176229
510	0.0297734
522	0.0433152
534	0.0249503
546	0.0140056
558	0.0212402
570	0.0472108
582	0.0473963
594	0.0156751
606	0.00435934
618	0.00324632
630	0.00287531
642	0.00408109
654	0.00176229
666	0.00306082
678	0.000556512
690	0.00389558
702	0.00658539
714	0.00491586
726	0.00621438
738	0.0153968
750	0.0473963
762	0.0275473
774	0.021333
786	0.0263416
798	0.0705843
810	0.130502
822	0.147105
834	0.0819
846	0.0588048
858	0.034411
870	0.0164171
882	0.013078
894	0.011965
906	0.0147476
918	0.0136345
930	0.0124288
942	0.0116868
954	0.0121505
966	0.0140056
978	0.0180866
990	0.0229097
1002	0.0318139
1014	0.0655757
1026	0.0971113
1038	0.204054
1050	0.196912
1062	0.0723466
1074	0.0380283
1086	0.033298
1098	0.0455412
1110	0.0582483
1122	0.0447065
1134	0.0343182
1146	0.0390486
1158	0.0697495
1170	0.307195
1182	0.19951
1194	0.0850536
1206	0.0813435
1218	0.106758
1230	0.227428
1242	0.741088
1254	0.704266
1266	0.283914
1278	0.203034
1290	0.172148
1302	0.14831
1314	0.0682655
1326	0.0667814
1338	0.0498078
1350	0.0330197
1362	0.022446
1374	0.0176229
1386	0.0183649
1398	0.0161388
1410	0.0238373
1422	0.0343182
1434	0.0567642
1446	0.105645
1458	0.0803232
1470	0.125401
1482	0.0791175
1494	0.129018
1506	0.630899
1518	0.532396
1530	0.0957201
1542	0.0311647
1554	0.0270836
1566	0.0317212
1578	0.0537962
1590	0.0793957
1602	0.12707
1614	0.172611
1626	0.0691002
1638	0.0267126
1650	0.0131708
1662	0.0154896
1674	0.00862594
1686	0.00380283
1698	0.00157678
1710	0.00871869
1722	0.00825493
1734	0.00454485
1746	0.00871869
1758	0.0115012
1770	0.00621438
1782	0.00500861
1794	0.00287531
1806	0.00556512
1818	0.00639989
1830	0.00361733
1842	0.00500861
1854	0.00992446
1866	0.00964621
1878	0.0122433
1890	0.0090897
1902	0.00779117
1914	0.00473035
1926	0.00510136
1938	0.0048231
1950	0.00389558
1962	0.00343182
1974	0.00398834
1986	0.00667814
1998	0.00834768
2010	0.00742016
2022	0.00593613
2034	0.00649264
2046	0.00797667
2058	0.0103882
2070	0.011223
2082	0.0113157
2094	0.00788392
2106	0.00343182
2118	0.00176229
2130	0.00111302
2142	0.000834768
2154	0.000278256
2166	0.000278256
2178	0.000371008
2190	0.00046376
2202	0.000649264
2214	0.00102027
2226	0.00092752
2238	0.000649264
2250	0.00139128
2262	0.0025043
2274	0.00333907
2286	0.00315357
2298	0.00166954
2310	0.000556512
2322	0.00046376
2334	9.2752e-05
2346	0.00278256
2358	0.00111302
2370	0.00102027
2382	0.0025043
2394	0.00185504
2406	0.00222605
2418	0.00324632
2430	0.00324632
2442	0.00241155
2454	0.00306082
2466	0.00343182
2478	0.00417384
2490	0.00519411
2502	0.0048231
2514	0.0046376
2526	0.00547237
2538	0.00612163
2550	0.00602888
2562	0.00380283
2574	0.00296806
2586	0.00343182
2598	0.00408109
2610	0.00315357
2622	0.00259706
2634	0.00268981
2646	0.00324632
2658	0.00241155
2670	0.00166954
2682	0.00204054
2694	0.0023188
2706	0.0025043
2718	0.00343182
2730	0.00426659
2742	0.00491586
2754	0.00612163
2766	0.0067709
2778	0.0071419
2790	0.0090897
2802	0.0117795
2814	0.0183649
2826	0.0315357
2838	0.0843116
2850	0.109633
2862	0.0576917
2874	0.0408109
2886	0.0415529
2898	0.059083
2910	0.111488
2922	0.147847
2934	0.122804
2946	0.141169
2958	0.121783
2970	0.0771697
2982	0.056857
2994	0.0810652
3006	0.164728
3018	0.0879289
3030	0.0896912
3042	0.0872796
3054	0.0419239
3066	0.0481383
3078	0.0509208
3090	0.0309792
3102	0.0293096
3114	0.0201272
3126	0.0135418
3138	0.0094607
3150	0.00575062
3162	0.00491586
3174	0.00398834
3186	0.00361733
3198	0.00287531
3210	0.00185504
3222	0.00204054
3234	0.00204054
3246	0.00166954
3258	0.0023188
3270	0.00129853
3282	0.00166954
3294	0.00148403
3306	0.00092752
3318	0.00102027
3330	0.00157678
3342	0.00139128
3354	0.00139128
3366	0.00129853
3378	0.00166954
3390	0.00129853
3402	0.00129853
3414	0.00176229
3426	0.00157678
3438	0.00139128
3450	0.00111302
3462	0.00148403
3474	0.00092752
3486	0.00111302
3498	0.00102027
3510	0.000742016
3522	0.00102027
3534	0.000185504
3546	0.00157678
3558	0.00102027
3570	0.000649264
3582	0.00129853
3594	0.00157678
3606	0.000834768
3618	0.000742016
3630	0.00102027
3642	0.0071419
3654	0.0236518
3666	0.00556512
3678	0.00139128
3690	0.00046376
3702	0.000649264
3714	9.2752e-05
3726	0.000278256
3738	0.00092752
3750	9.2752e-05
3762	9.2752e-05
3774	0.000278256
3786	0.000185504
3798	9.2752e-05
3810	9.2752e-05
3822	9.2752e-05
3834	9.2752e-05
3846	9.2752e-05
3858	9.2752e-05
3870	9.2752e-05
3882	0.000742016
3894	0.000371008
3906	9.2752e-05
3918	9.2752e-05
3930	0.00092752
3942	9.2752e-05
3954	0.00046376
3966	0.00046376
