Infrared Spectrum: 2-Thiophenecarboxaldehyde, 5-chloro-
Formula: C 5 H 3 Cl O S
CAS: 7283-96-7
Origin: Sadtler Research Labs Under US-EPA Contract
1/CM	ABSORBANCE
450	0
462	0.0247982
474	0.0447234
486	0.0634574
498	0.0290215
510	0.0166765
522	0.0400669
534	0.0323784
546	0.0129947
558	0.010504
570	0.00844654
582	0.0102875
594	0.0108289
606	0.0100709
618	0.015377
630	0.0141859
642	0.0166765
654	0.0491632
666	0.123558
678	0.0818665
690	0.0135361
702	0.0136444
714	0.0154853
726	0.0164599
738	0.0249065
750	0.0466726
762	0.0290215
774	0.0290215
786	0.0949695
798	0.15572
810	0.123233
822	0.0547942
834	0.0191672
846	0.0111538
858	0.0110455
870	0.0110455
882	0.00996259
894	0.0115869
906	0.0100709
918	0.00963772
930	0.00920457
942	0.00963772
954	0.010504
966	0.0122367
978	0.0176511
990	0.0390923
1002	0.218311
1014	0.244192
1026	0.0198169
1038	0.0208998
1050	0.0237153
1062	0.0285883
1074	0.0288049
1086	0.0193837
1098	0.0188423
1110	0.0191672
1122	0.0191672
1134	0.0211164
1146	0.0229573
1158	0.0234987
1170	0.0285883
1182	0.0633491
1194	0.186582
1206	0.17976
1218	0.148789
1230	0.0866312
1242	0.018734
1254	0.0144024
1266	0.0160268
1278	0.0200335
1290	0.017218
1302	0.0183008
1314	0.0254479
1326	0.0717956
1338	0.0552274
1350	0.0167848
1362	0.0190589
1374	0.026964
1386	0.032595
1398	0.051329
1410	0.118143
1422	0.591908
1434	0.694457
1446	0.0909628
1458	0.0217661
1470	0.0141859
1482	0.0128864
1494	0.0106123
1506	0.0098543
1518	0.0259894
1530	0.052087
1542	0.022849
1554	0.0114786
1566	0.0120201
1578	0.0166765
1590	0.0192754
1602	0.0174345
1614	0.0155936
1626	0.0127781
1638	0.0102875
1650	0.0126698
1662	0.0309707
1674	0.0507875
1686	0.180843
1698	1.02095
1710	0.800689
1722	0.0965938
1734	0.0349773
1746	0.0331364
1758	0.0387675
1770	0.023607
1782	0.0164599
1794	0.0200335
1806	0.0184091
1818	0.0126698
1830	0.0113703
1842	0.0191672
1854	0.0213329
1866	0.0206832
1878	0.0186257
1890	0.0139693
1902	0.0098543
1914	0.00833825
1926	0.00822996
1938	0.0088797
1950	0.00996259
1962	0.00996259
1974	0.00920457
1986	0.00844654
1998	0.00833825
2010	0.00909628
2022	0.00844654
2034	0.00822996
2046	0.00844654
2058	0.00909628
2070	0.00942114
2082	0.0088797
2094	0.00877141
2106	0.0088797
2118	0.0088797
2130	0.00920457
2142	0.00866312
2154	0.00768852
2166	0.00747194
2178	0.00758023
2190	0.00736365
2202	0.00812168
2214	0.00812168
2226	0.00801339
2238	0.00779681
2250	0.00747194
2262	0.00801339
2274	0.00812168
2286	0.00725536
2298	0.00747194
2310	0.00822996
2322	0.0079051
2334	0.00768852
2346	0.00898799
2358	0.00801339
2370	0.00952943
2382	0.00855483
2394	0.00779681
2406	0.00844654
2418	0.00920457
2430	0.00866312
2442	0.00833825
2454	0.00833825
2466	0.00855483
2478	0.00866312
2490	0.00963772
2502	0.0098543
2514	0.00833825
2526	0.00877141
2538	0.00920457
2550	0.00877141
2562	0.00877141
2574	0.00855483
2586	0.00898799
2598	0.00963772
2610	0.0103957
2622	0.0123449
2634	0.0118035
2646	0.0134278
2658	0.0149439
2670	0.0190589
2682	0.0246899
2694	0.0180843
2706	0.0173262
2718	0.0267474
2730	0.0523036
2742	0.0746111
2754	0.0482969
2766	0.026964
2778	0.0501378
2790	0.106665
2802	0.0904213
2814	0.108506
2826	0.108397
2838	0.0560937
2850	0.0312955
2862	0.0185174
2874	0.0145107
2886	0.0139693
2898	0.014619
2910	0.0148356
2922	0.0144024
2934	0.0140776
2946	0.0125615
2958	0.0125615
2970	0.0120201
2982	0.0118035
2994	0.0112621
3006	0.0114786
3018	0.0112621
3030	0.0108289
3042	0.0124532
3054	0.0116952
3066	0.0107206
3078	0.0148356
3090	0.0162434
3102	0.0121284
3114	0.0114786
3126	0.0128864
3138	0.0112621
3150	0.00898799
3162	0.00909628
3174	0.00920457
3186	0.00909628
3198	0.00898799
3210	0.00909628
3222	0.00877141
3234	0.00931285
3246	0.00898799
3258	0.00920457
3270	0.00920457
3282	0.00920457
3294	0.00974601
3306	0.00942114
3318	0.0088797
3330	0.00920457
3342	0.00942114
3354	0.00952943
3366	0.0132113
3378	0.0219827
3390	0.0213329
3402	0.010504
3414	0.00758023
3426	0.00822996
3438	0.0088797
3450	0.00866312
3462	0.00952943
3474	0.00920457
3486	0.00942114
3498	0.00931285
3510	0.00952943
3522	0.00963772
3534	0.0098543
3546	0.00996259
3558	0.00952943
3570	0.010504
3582	0.014619
3594	0.0144024
3606	0.0103957
3618	0.00996259
3630	0.0106123
3642	0.00963772
3654	0.00996259
3666	0.00920457
3678	0.0107206
3690	0.00931285
3702	0.00996259
3714	0.0103957
3726	0.0102875
3738	0.00942114
3750	0.00920457
3762	0.00996259
3774	0.00942114
3786	0.0088797
3798	0.0110455
3810	0.00942114
3822	0.0107206
3834	0.0113703
3846	0.0110455
3858	0.0102875
3870	0.0100709
3882	0.0101792
3894	0.0111538
3906	0.0103957
3918	0.00942114
3930	0.0108289
3942	0.0109372
3954	0.0102875
3966	0.00974601
