Infrared Spectrum: 2-Butenedioic acid (E)-, bis(2-methylpropyl) ester
Formula: C 12 H 20 O 4
CAS: 7283-69-4
Origin: Sadtler Research Labs Under US-EPA Contract
1/CM	ABSORBANCE
450	0.00929383
462	0.0128976
474	0.0104318
486	0.00720746
498	0.0138459
510	0.0187773
522	0.00910416
534	0.00986284
546	0.0176393
558	0.0108112
570	0.0117595
582	0.0117595
594	0.00682812
606	0.0134666
618	0.0163116
630	0.0111905
642	0.0197257
654	0.0451415
666	0.0980594
678	0.0413481
690	0.0110009
702	0.00910416
714	0.00701779
726	0.00606944
738	0.00891449
750	0.0153633
762	0.0339509
774	0.0548146
786	0.039641
798	0.0242778
810	0.0221914
822	0.0273125
834	0.0259848
846	0.0263641
858	0.0282608
870	0.0278815
882	0.0295885
894	0.0366063
906	0.0487452
918	0.059746
930	0.0749196
942	0.0809891
954	0.0940763
966	0.127648
978	0.238795
990	0.19536
1002	0.277298
1014	0.732885
1026	0.686226
1038	0.278056
1050	0.100904
1062	0.0768163
1074	0.0665742
1086	0.0652465
1098	0.0718849
1110	0.10944
1122	0.142442
1134	0.236329
1146	0.842893
1158	1.02061
1170	0.867551
1182	0.448949
1194	0.216793
1206	0.236898
1218	0.546439
1230	0.555923
1242	0.728522
1254	1.51319
1266	0.933176
1278	0.66081
1290	1.44832
1302	0.95385
1314	0.470192
1326	0.16653
1338	0.12082
1350	0.127458
1362	0.109629
1374	0.24714
1386	0.25264
1398	0.139218
1410	0.0690399
1422	0.0451415
1434	0.0436241
1446	0.059746
1458	0.110767
1470	0.181894
1482	0.121009
1494	0.0495039
1506	0.0284505
1518	0.021812
1530	0.0180187
1542	0.0127079
1554	0.0111905
1566	0.0142253
1578	0.00777647
1590	0.0136562
1602	0.0168806
1614	0.0168806
1626	0.0252261
1638	0.0565217
1650	0.0988181
1662	0.0479865
1674	0.0424861
1686	0.0409687
1698	0.0779544
1710	0.135235
1722	0.227604
1734	0.881207
1746	1.8967
1758	0.508885
1770	0.188722
1782	0.106215
1794	0.0692296
1806	0.039072
1818	0.0237088
1830	0.0170703
1842	0.0130872
1854	0.0153633
1866	0.0155529
1878	0.0128976
1890	0.0102422
1902	0.0117595
1914	0.00986284
1926	0.0104318
1938	0.0102422
1950	0.00910416
1962	0.00853515
1974	0.00720746
1986	0.00625911
1998	0.00682812
2010	0.00701779
2022	0.00720746
2034	0.00815581
2046	0.0075868
2058	0.00625911
2070	0.00739713
2082	0.00720746
2094	0.00777647
2106	0.00929383
2118	0.0102422
2130	0.0104318
2142	0.00967317
2154	0.00834548
2166	0.00777647
2178	0.00777647
2190	0.00625911
2202	0.00587977
2214	0.00550043
2226	0.00493142
2238	0.00474175
2250	0.00512109
2262	0.00493142
2274	0.00531076
2286	0.00587977
2298	0.00550043
2310	0.00493142
2322	0.00531076
2334	0.00512109
2346	0.00701779
2358	0.00265538
2370	0.00094835
2382	0.00322439
2394	0.00265538
2406	0.00284505
2418	0.00265538
2430	0.00322439
2442	0.00284505
2454	0.00303472
2466	0.00303472
2478	0.00341406
2490	0.00417274
2502	0.00436241
2514	0.00417274
2526	0.00322439
2538	0.00265538
2550	0.00265538
2562	0.00265538
2574	0.00341406
2586	0.00398307
2598	0.00341406
2610	0.00341406
2622	0.00436241
2634	0.00398307
2646	0.00417274
2658	0.00322439
2670	0.0018967
2682	0.00056901
2694	0.00056901
2706	0.00303472
2718	0.00512109
2730	0.00986284
2742	0.0144149
2754	0.0136562
2766	0.0128976
2778	0.0110009
2790	0.0127079
2802	0.0130872
2814	0.0155529
2826	0.0202947
2838	0.0263641
2850	0.0333819
2862	0.0468485
2874	0.095404
2886	0.251123
2898	0.235191
2910	0.205602
2922	0.209396
2934	0.244295
2946	0.35639
2958	0.462226
2970	0.703865
2982	0.728712
2994	0.162547
3006	0.0627808
3018	0.0343303
3030	0.0214327
3042	0.0151736
3054	0.0108112
3066	0.0113802
3078	0.0121389
3090	0.0102422
3102	0.00834548
3114	0.00815581
3126	0.0075868
3138	0.00701779
3150	0.00720746
3162	0.00910416
3174	0.0094835
3186	0.0102422
3198	0.00853515
3210	0.00720746
3222	0.00663845
3234	0.00493142
3246	0.00550043
3258	0.00550043
3270	0.00682812
3282	0.00303472
3294	0
3306	0.00246571
3318	0.00227604
3330	0.00075868
3342	0.00303472
3354	0.00303472
3366	0.0037934
3378	0.00512109
3390	0.00512109
3402	0.00474175
3414	0.00474175
3426	0.00512109
3438	0.00682812
3450	0.00606944
3462	0.0125182
3474	0.021243
3486	0.0119492
3498	0.00796614
3510	0.00701779
3522	0.00587977
3534	0.00398307
3546	0.00739713
3558	0.00682812
3570	0.00815581
3582	0.0157426
3594	0.0102422
3606	0.00606944
3618	0.00398307
3630	0.00436241
3642	0.00701779
3654	0.00720746
3666	0.0056901
3678	0.00682812
3690	0.00303472
3702	0.00625911
3714	0.00606944
3726	0.00777647
3738	0.00512109
3750	0.00341406
3762	0.00701779
3774	0.00341406
3786	0.00417274
3798	0.00436241
3810	0.00796614
3822	0.00246571
3834	0.00550043
3846	0.00587977
3858	0.00227604
3870	0.00531076
3882	0.00910416
3894	0.00322439
3906	0.00720746
3918	0.00474175
3930	0.00284505
3942	0.00587977
3954	0.00303472
3966	0.00663845
