Infrared Spectrum: 1-(2-Methylphenyl)ethanol
Formula: C 9 H 12 O
CAS: 7287-82-3
Origin: Sadtler Research Labs Under US-EPA Contract
1/CM	ABSORBANCE
450	0.059484
462	0.0410271
474	0.00648628
486	0.0123398
498	0.0259979
510	0.0109687
522	0.00464059
534	0.00522067
546	0.0171385
558	0.0233612
570	0.0104413
582	0.00421872
594	0.00574801
606	0.0282654
618	0.0423454
630	0.0168749
642	0.00564254
654	0.00374411
666	0.000210936
678	0.00142382
690	0.00363865
702	0.00785737
714	0.0666558
726	0.241047
738	0.214838
750	0.271633
762	0.294572
774	0.09239
786	0.0172968
798	0.0104413
810	0.0118651
822	0.00748823
834	0.00590621
846	0.00727729
858	0.010705
870	0.0223065
882	0.0593258
894	0.149343
906	0.134103
918	0.0463532
930	0.0283709
942	0.0374939
954	0.0265252
966	0.0273162
978	0.0510465
990	0.132046
1002	0.220955
1014	0.140062
1026	0.080683
1038	0.13753
1050	0.224067
1062	0.24959
1074	0.419183
1086	0.391023
1098	0.178452
1110	0.0970306
1122	0.0936556
1134	0.086642
1146	0.0514157
1158	0.0541578
1170	0.0796283
1182	0.0857982
1194	0.0696616
1206	0.0716128
1218	0.0849017
1230	0.0922318
1242	0.146442
1254	0.229762
1266	0.175024
1278	0.14022
1290	0.137583
1302	0.0867474
1314	0.0697143
1326	0.0795229
1338	0.106101
1350	0.159784
1362	0.184938
1374	0.224963
1386	0.196856
1398	0.100195
1410	0.0585875
1422	0.0576383
1434	0.0693452
1446	0.112429
1458	0.176606
1470	0.163001
1482	0.144017
1494	0.1437
1506	0.0669722
1518	0.0265779
1530	0.0166639
1542	0.013289
1554	0.0112323
1566	0.0113905
1578	0.0155565
1590	0.0222537
1602	0.0341716
1614	0.0345408
1626	0.0157147
1638	0.00611714
1650	0.00479879
1662	0.00632808
1674	0.0077519
1686	0.0101249
1698	0.0162421
1710	0.0112323
1722	0.00733003
1734	0.00595894
1746	0.00363865
1758	0.00490426
1770	0.00442966
1782	0.0052734
1794	0.0123398
1806	0.0140272
1818	0.00674995
1830	0.00896478
1842	0.00854291
1854	0.00200389
1866	0.00284764
1878	0.00690815
1890	0.00954485
1902	0.0151347
1914	0.0220955
1926	0.0126034
1938	0.0101777
1950	0.0146601
1962	0.00632808
1974	0.00274217
1986	0.00174022
1998	0.00126562
2010	0.000896478
2022	0.000738276
2034	0.000421872
2046	0
2058	0.000158202
2070	0.00026367
2082	0.000632808
2094	0.000632808
2106	0.00052734
2118	0.00052734
2130	0.000316404
2142	0.000105468
2154	0.000474606
2166	0.000474606
2178	0.000474606
2190	0.000843744
2202	0.00079101
2214	0.000685542
2226	0.000369138
2238	0.000369138
2250	0.00110741
2262	0.00200389
2274	0.00200389
2286	0.00158202
2298	0.00121288
2310	0.00105468
2322	0.0027949
2334	0.00432419
2346	0.00353318
2358	0.0023203
2370	0.00216209
2382	0.00189842
2394	0.00242576
2406	0.00300584
2418	0.00321677
2430	0.00342771
2442	0.00374411
2454	0.00379685
2466	0.0027949
2478	0.00253123
2490	0.00221483
2502	0.0023203
2514	0.00205663
2526	0.00210936
2538	0.00205663
2550	0.0023203
2562	0.00321677
2574	0.00411325
2586	0.00448239
2598	0.00532613
2610	0.00532613
2622	0.00537887
2634	0.0052734
2646	0.00474606
2658	0.00474606
2670	0.00548434
2682	0.00685542
2694	0.00717182
2706	0.00748823
2718	0.00843744
2730	0.0105995
2742	0.0134999
2754	0.0140272
2766	0.0125507
2778	0.012287
2790	0.0130253
2802	0.0152401
2814	0.0205663
2826	0.0256287
2838	0.0317459
2850	0.0431364
2862	0.0703472
2874	0.129462
2886	0.175024
2898	0.188366
2910	0.208036
2922	0.237989
2934	0.299793
2946	0.284342
2958	0.221061
2970	0.302113
2982	0.52734
2994	0.370193
3006	0.126614
3018	0.143173
3030	0.225438
3042	0.189895
3054	0.150661
3066	0.215049
3078	0.240678
3090	0.13136
3102	0.0589566
3114	0.041238
3126	0.020619
3138	0.0125507
3150	0.0123398
3162	0.0116015
3174	0.00965032
3186	0.00727729
3198	0.0052734
3210	0.00384958
3222	0.00326951
3234	0.0024785
3246	0.00158202
3258	0.00142382
3270	0.00147655
3282	0.00137108
3294	0.00110741
3306	0.000949212
3318	0.00100195
3330	0.00110741
3342	0.00110741
3354	0.00205663
3366	0.00210936
3378	0.00268943
3390	0.00284764
3402	0.0026367
3414	0.00284764
3426	0.0026367
3438	0.00205663
3450	0.0023203
3462	0.0027949
3474	0.0026367
3486	0.00200389
3498	0.00205663
3510	0.00189842
3522	0.00195116
3534	0.00258397
3546	0.00147655
3558	0.00158202
3570	0.000474606
3582	0.00305857
3594	0.00348044
3606	0.00411325
3618	0.00827924
3630	0.0312185
3642	0.108421
3654	0.126403
3666	0.0498336
3678	0.00907025
3690	0.00416599
3702	0.00363865
3714	0.00242576
3726	0.00205663
3738	0.00110741
3750	0.000738276
3762	0.0026367
3774	0.00258397
3786	0.00152929
3798	0.00100195
3810	0.0024785
3822	0.00290037
3834	0.00210936
3846	0.00469333
3858	0.00437692
3870	0.00458786
3882	0.00595894
3894	0.00485153
3906	0.00237303
3918	0.00221483
3930	0.00305857
3942	0.00369138
3954	0.00406052
3966	0.0027949
