Infrared Spectrum: Carbamic acid, dimethyl-, m-nitrophenyl ester
Formula: C 9 H 10 N 2 O 4
CAS: 7304-99-6
Origin: Sadtler Research Labs Under US-EPA Contract
1/CM	ABSORBANCE
450	0
462	0.00364883
474	0.00889403
486	0.00729766
498	0.00992026
510	0.0118587
522	0.0169899
534	0.0166478
546	0.0158496
558	0.0155075
570	0.0124288
582	0.0164197
594	0.0188143
606	0.030901
618	0.0199545
630	0.0196125
642	0.021779
654	0.0256558
666	0.0462946
678	0.0608899
690	0.0488031
702	0.0258839
714	0.0271382
726	0.0639686
738	0.108211
750	0.0590655
762	0.0535922
774	0.0346639
786	0.0513117
798	0.0580392
810	0.0583813
822	0.216535
834	0.127253
846	0.0337517
858	0.0199545
870	0.0188143
882	0.0267961
894	0.0637405
906	0.0480049
918	0.0418475
930	0.02634
942	0.0167618
954	0.0165338
966	0.0172179
978	0.022121
990	0.0446982
1002	0.0916769
1014	0.0907647
1026	0.0460665
1038	0.0408213
1050	0.0542764
1062	0.0670473
1074	0.074345
1086	0.0771956
1098	0.0794761
1110	0.096352
1122	0.143445
1134	0.24755
1146	0.468191
1158	0.743564
1170	0.58883
1182	0.346183
1194	0.254164
1206	0.359638
1218	0.823838
1230	0.477769
1242	0.122008
1254	0.0864317
1266	0.140822
1278	0.206273
1290	0.092133
1302	0.0895104
1314	0.0897385
1326	0.107755
1338	0.18438
1350	0.456788
1362	0.5081
1374	0.427027
1386	0.463972
1398	0.266137
1410	0.156558
1422	0.117561
1434	0.0953257
1446	0.174232
1458	0.227596
1470	0.177082
1482	0.169671
1494	0.128051
1506	0.132498
1518	0.155075
1530	0.237174
1542	0.536264
1554	0.579936
1566	0.207185
1578	0.107298
1590	0.102509
1602	0.0694418
1614	0.0442421
1626	0.0367164
1638	0.0323834
1650	0.0330675
1662	0.0337517
1674	0.0383127
1686	0.0384268
1698	0.0478909
1710	0.0681875
1722	0.107184
1734	0.188713
1746	0.418703
1758	1.08883
1770	0.507302
1782	0.115166
1794	0.0534782
1806	0.0255418
1818	0.0144813
1830	0.0137971
1842	0.0109465
1854	0.00718364
1866	0.00718364
1878	0.00798182
1890	0.00661351
1902	0.00330675
1914	0.0030787
1926	0.00433299
1938	0.00695559
1950	0.00467507
1962	0.00330675
1974	0.00353481
1986	0.00478909
1998	0.00672753
2010	0.00741169
2022	0.00684156
2034	0.00627143
2046	0.0052452
2058	0.00353481
2070	0.00273662
2082	0.0026226
2094	0.0030787
2106	0.00285065
2118	0.0030787
2130	0.00387688
2142	0.00444701
2154	0.00376286
2166	0.00342078
2178	0.0026226
2190	0.00193844
2202	0.00216649
2214	0.00193844
2226	0.00171039
2238	0.00125429
2250	0.00159636
2262	0.00182442
2274	0.00285065
2286	0.00399091
2298	0.00444701
2310	0.00547325
2322	0.00444701
2334	0.00410494
2346	0.00456104
2358	0.00399091
2370	0.00444701
2382	0.00501714
2394	0.00330675
2406	0.00285065
2418	0.00296468
2430	0.00444701
2442	0.00456104
2454	0.0030787
2466	0.00273662
2478	0.0030787
2490	0.00353481
2502	0.00433299
2514	0.00376286
2526	0.00364883
2538	0.00364883
2550	0.00353481
2562	0.00353481
2574	0.00490312
2586	0.00467507
2598	0.00467507
2610	0.00433299
2622	0.00330675
2634	0.00330675
2646	0.00364883
2658	0.00399091
2670	0.00456104
2682	0.00513117
2694	0.00535922
2706	0.00581533
2718	0.00535922
2730	0.0052452
2742	0.0052452
2754	0.00638546
2766	0.00729766
2778	0.00786779
2790	0.00980624
2802	0.0135691
2814	0.0239455
2826	0.0255418
2838	0.026454
2850	0.0314712
2862	0.0424177
2874	0.05268
2886	0.0578112
2898	0.0649948
2910	0.0724065
2922	0.0842652
2934	0.110947
2946	0.129876
2958	0.102965
2970	0.0639686
2982	0.0397951
2994	0.0265681
3006	0.0214369
3018	0.022007
3030	0.0255418
3042	0.0294187
3054	0.0281644
3066	0.0228052
3078	0.0259979
3090	0.0326114
3102	0.0244016
3114	0.0150514
3126	0.0110605
3138	0.0103764
3150	0.00866598
3162	0.00672753
3174	0.0052452
3186	0.00490312
3198	0.0052452
3210	0.00490312
3222	0.00513117
3234	0.00478909
3246	0.00421896
3258	0.00399091
3270	0.00444701
3282	0.00421896
3294	0.00410494
3306	0.00410494
3318	0.00433299
3330	0.00456104
3342	0.00467507
3354	0.00364883
3366	0.00490312
3378	0.00421896
3390	0.00399091
3402	0.00444701
3414	0.00376286
3426	0.00342078
3438	0.00353481
3450	0.00285065
3462	0.0030787
3474	0.0026226
3486	0.00285065
3498	0.00444701
3510	0.00273662
3522	0.00193844
3534	0.00182442
3546	0.00205247
3558	0.00228052
3570	0.0026226
3582	0.00228052
3594	0.0030787
3606	0.00228052
3618	0.00228052
3630	0.00410494
3642	0.0026226
3654	0.00250857
3666	0.00193844
3678	0.00342078
3690	0.00171039
3702	0.00216649
3714	0.0026226
3726	0.00239455
3738	0.00285065
3750	0.00250857
3762	0.00296468
3774	0.00205247
3786	0.00114026
3798	0.00250857
3810	0.00216649
3822	0.00319273
3834	0.00228052
3846	0.0026226
3858	0.00285065
3870	0.00330675
3882	0.00342078
3894	0.00353481
3906	0.00444701
3918	0.00364883
3930	0.0030787
3942	0.00456104
3954	0.00421896
3966	0.00433299
