Infrared Spectrum: Carbamic acid, dimethyl-, p-tolyl ester
Formula: C 10 H 13 N O 2
CAS: 7305-08-0
Origin: Sadtler Research Labs Under US-EPA Contract
1/CM	ABSORBANCE
450	0
462	0.0177075
474	0.0196569
486	0.0341153
498	0.0641693
510	0.0607578
522	0.0349276
534	0.0311912
546	0.0385016
558	0.0432128
570	0.0321659
582	0.0297291
594	0.0290793
606	0.0305414
618	0.0357399
630	0.0425629
642	0.0346027
654	0.0329782
666	0.0329782
678	0.0284294
690	0.030054
702	0.0316785
714	0.0310287
726	0.0307038
738	0.0375269
750	0.0614076
762	0.0810645
774	0.0641693
786	0.0742415
798	0.112906
810	0.101046
822	0.0807396
834	0.0661188
846	0.121191
858	0.157905
870	0.0755411
882	0.0420756
894	0.0342778
906	0.0305414
918	0.0305414
930	0.0331406
942	0.0316785
954	0.0311912
966	0.0328157
978	0.0380142
990	0.0503607
1002	0.0771657
1014	0.133537
1026	0.118754
1038	0.0696928
1050	0.0828515
1062	0.0890248
1074	0.0786277
1086	0.0813895
1098	0.102346
1110	0.131263
1122	0.160667
1134	0.241082
1146	0.426604
1158	0.763209
1170	1.18039
1182	0.752812
1194	0.558679
1206	1.0761
1218	1.51261
1230	0.488987
1242	0.19462
1254	0.151082
1266	0.144259
1278	0.137436
1290	0.11388
1302	0.0890248
1314	0.0882125
1326	0.0977973
1338	0.113393
1350	0.161479
1362	0.326045
1374	0.705863
1386	0.74339
1398	0.359186
1410	0.231172
1422	0.175613
1434	0.151245
1446	0.267237
1458	0.316623
1470	0.228085
1482	0.21119
1494	0.236695
1506	0.3959
1518	0.366984
1530	0.117779
1542	0.0950356
1554	0.084801
1566	0.0696928
1578	0.0610827
1590	0.0620574
1602	0.0662812
1614	0.0649816
1626	0.0474366
1638	0.0445124
1650	0.0381767
1662	0.0428879
1674	0.042238
1686	0.0453247
1698	0.0633571
1710	0.115342
1722	0.18666
1734	0.408409
1746	1.2751
1758	1.23904
1770	0.304601
1782	0.104295
1794	0.0605953
1806	0.0359023
1818	0.0271298
1830	0.021119
1842	0.0190071
1854	0.0227436
1866	0.0266425
1878	0.0290793
1890	0.0219313
1902	0.0172201
1914	0.0154331
1926	0.0172201
1938	0.0168952
1950	0.0165703
1962	0.0185198
1974	0.0201443
1986	0.019332
1998	0.0217688
2010	0.0243681
2022	0.0225811
2034	0.0201443
2046	0.0185198
2058	0.0203067
2070	0.0199818
2082	0.0168952
2094	0.0147833
2106	0.0141335
2118	0.0141335
2130	0.0149458
2142	0.0149458
2154	0.0149458
2166	0.0164079
2178	0.0164079
2190	0.0144584
2202	0.0134837
2214	0.0129963
2226	0.0141335
2238	0.0151082
2250	0.0162454
2262	0.0172201
2274	0.0191696
2286	0.0214439
2298	0.022906
2310	0.0263175
2322	0.0230685
2334	0.0206317
2346	0.0222562
2358	0.0206317
2370	0.0217688
2382	0.0232309
2394	0.0151082
2406	0.0149458
2418	0.015758
2430	0.0151082
2442	0.0144584
2454	0.014296
2466	0.0144584
2478	0.014296
2490	0.0141335
2502	0.0146209
2514	0.0144584
2526	0.0151082
2538	0.0159205
2550	0.0164079
2562	0.0154331
2574	0.0160829
2586	0.0160829
2598	0.0159205
2610	0.015758
2622	0.0151082
2634	0.0146209
2646	0.0147833
2658	0.0147833
2670	0.0152707
2682	0.0159205
2694	0.0160829
2706	0.017545
2718	0.0185198
2730	0.0203067
2742	0.0238807
2754	0.0240432
2766	0.022906
2778	0.0235558
2790	0.0271298
2802	0.0362272
2814	0.0550719
2826	0.0544221
2838	0.0589708
2850	0.0718047
2862	0.100721
2874	0.134674
2886	0.144584
2898	0.147021
2910	0.166353
2922	0.208916
2934	0.291118
2946	0.263988
2958	0.178212
2970	0.119729
2982	0.0893497
2994	0.0841512
3006	0.0874003
3018	0.0917865
3030	0.116967
3042	0.149783
3054	0.0947107
3066	0.0719671
3078	0.0581585
3090	0.042238
3102	0.0370395
3114	0.0344402
3126	0.0307038
3138	0.0253428
3150	0.0203067
3162	0.0183573
3174	0.0172201
3186	0.0167328
3198	0.0164079
3210	0.015758
3222	0.0155956
3234	0.0160829
3246	0.015758
3258	0.0155956
3270	0.0159205
3282	0.015758
3294	0.0151082
3306	0.0155956
3318	0.0151082
3330	0.0154331
3342	0.0151082
3354	0.0154331
3366	0.0155956
3378	0.0155956
3390	0.0154331
3402	0.0149458
3414	0.0147833
3426	0.014296
3438	0.0146209
3450	0.0147833
3462	0.0154331
3474	0.0167328
3486	0.0185198
3498	0.0168952
3510	0.0131588
3522	0.0131588
3534	0.0136461
3546	0.013971
3558	0.0131588
3570	0.0141335
3582	0.0138086
3594	0.014296
3606	0.0136461
3618	0.0141335
3630	0.0155956
3642	0.0149458
3654	0.0146209
3666	0.0144584
3678	0.0154331
3690	0.0134837
3702	0.0144584
3714	0.014296
3726	0.0133212
3738	0.0146209
3750	0.0136461
3762	0.0131588
3774	0.0134837
3786	0.0128339
3798	0.0131588
3810	0.0134837
3822	0.0151082
3834	0.0141335
3846	0.0149458
3858	0.0146209
3870	0.0151082
3882	0.0154331
3894	0.0160829
3906	0.0168952
3918	0.0160829
3930	0.0144584
3942	0.0160829
3954	0.0159205
3966	0.0159205
