Infrared Spectrum: Carbamic acid, dimethyl-, p-methoxyphenyl ester
Formula: C 10 H 13 N O 3
CAS: 7305-10-4
Origin: Sadtler Research Labs Under US-EPA Contract
1/CM	ABSORBANCE
450	0
462	0.00251597
474	0.0145152
486	0.0222566
498	0.0311593
510	0.045868
522	0.0456745
534	0.0412232
546	0.0406426
558	0.0530289
570	0.0721889
582	0.0398684
594	0.0243855
606	0.0232243
618	0.0232243
630	0.026708
642	0.0238049
654	0.0232243
666	0.0209019
678	0.0183859
690	0.0178053
702	0.0205148
714	0.0249661
726	0.0280627
738	0.0334817
750	0.0818657
762	0.144958
774	0.0607703
786	0.0520612
798	0.0683182
810	0.106638
822	0.107412
834	0.083414
846	0.0998646
858	0.176311
870	0.0946391
882	0.0419973
894	0.0261274
906	0.0201277
918	0.0205148
930	0.0199342
942	0.0207084
954	0.0222566
966	0.026708
978	0.0352236
990	0.0539965
1002	0.0956068
1014	0.153474
1026	0.138572
1038	0.227598
1050	0.234759
1062	0.131604
1074	0.0857364
1086	0.0861235
1098	0.123863
1110	0.143023
1122	0.179408
1134	0.299013
1146	0.601316
1158	1.01084
1170	1.30695
1182	0.988775
1194	1.2514
1206	1.93536
1218	1.16102
1230	0.380298
1242	0.311593
1254	0.265725
1266	0.166247
1278	0.171279
1290	0.158119
1302	0.116122
1314	0.094252
1326	0.0948326
1338	0.102381
1350	0.155409
1362	0.32185
1374	0.745501
1386	0.810335
1398	0.383975
1410	0.234566
1422	0.175731
1434	0.172634
1446	0.370428
1458	0.384169
1470	0.315657
1482	0.274434
1494	0.381072
1506	1.06793
1518	0.462938
1530	0.121734
1542	0.0739308
1554	0.0673505
1566	0.0574802
1578	0.0532224
1590	0.0628992
1602	0.0801239
1614	0.0747049
1626	0.0476099
1638	0.0385137
1650	0.0239985
1662	0.0352236
1674	0.0298045
1686	0.0305787
1698	0.048384
1710	0.112831
1722	0.184053
1734	0.418812
1746	1.37159
1758	1.14128
1770	0.269596
1782	0.0921231
1794	0.0456745
1806	0.0259338
1818	0.0193536
1830	0.0110316
1842	0.0114186
1854	0.0199342
1866	0.018773
1878	0.0149023
1890	0.00658022
1902	0.00580608
1914	0.00464486
1926	0.00561254
1938	0.00561254
1950	0.00599962
1962	0.0075479
1974	0.00909619
1986	0.0123863
1998	0.0193536
2010	0.0239985
2022	0.0183859
2034	0.018773
2046	0.018773
2058	0.0199342
2070	0.0164506
2082	0.0121928
2094	0.00890266
2106	0.00503194
2118	0.00387072
2130	0.00445133
2142	0.00425779
2154	0.00445133
2166	0.00522547
2178	0.00522547
2190	0.00367718
2202	0.00329011
2214	0.00290304
2226	0.0027095
2238	0.00309658
2250	0.00367718
2262	0.00503194
2274	0.00619315
2286	0.00677376
2298	0.00677376
2310	0.00735437
2322	0.00561254
2334	0.00561254
2346	0.00793498
2358	0.00812851
2370	0.00832205
2382	0.00658022
2394	0.00348365
2406	0.00367718
2418	0.00329011
2430	0.00329011
2442	0.00406426
2454	0.00503194
2466	0.00541901
2478	0.0048384
2490	0.00541901
2502	0.00541901
2514	0.0048384
2526	0.00561254
2538	0.00716083
2550	0.0075479
2562	0.00619315
2574	0.00541901
2586	0.00503194
2598	0.0048384
2610	0.00561254
2622	0.00406426
2634	0.00425779
2646	0.0048384
2658	0.00425779
2670	0.00425779
2682	0.00445133
2694	0.0048384
2706	0.00561254
2718	0.00677376
2730	0.00774144
2742	0.0096768
2754	0.0121928
2766	0.013354
2778	0.0152893
2790	0.0199342
2802	0.032127
2814	0.056706
2826	0.0638669
2838	0.10838
2850	0.129282
2862	0.105671
2874	0.109541
2886	0.11825
2898	0.14283
2910	0.18444
2922	0.225857
2934	0.27095
2946	0.308303
2958	0.240565
2970	0.150571
2982	0.096768
2994	0.0896072
3006	0.151926
3018	0.0861235
3030	0.0605768
3042	0.07006
3054	0.080511
3066	0.0636733
3078	0.0485775
3090	0.0363848
3102	0.0290304
3114	0.0272886
3126	0.0224502
3138	0.0152893
3150	0.0102574
3162	0.00832205
3174	0.00677376
3186	0.00638669
3198	0.00580608
3210	0.00503194
3222	0.00503194
3234	0.0048384
3246	0.00464486
3258	0.00464486
3270	0.00464486
3282	0.00406426
3294	0.00464486
3306	0.00445133
3318	0.00464486
3330	0.00464486
3342	0.00445133
3354	0.0048384
3366	0.0048384
3378	0.00464486
3390	0.00464486
3402	0.00445133
3414	0.00425779
3426	0.00425779
3438	0.0048384
3450	0.00406426
3462	0.00522547
3474	0.0069673
3486	0.00851558
3498	0.00599962
3510	0.0027095
3522	0.00309658
3534	0.00348365
3546	0.00329011
3558	0.00309658
3570	0.00367718
3582	0.00348365
3594	0.00445133
3606	0.00367718
3618	0.00367718
3630	0.00522547
3642	0.00445133
3654	0.00387072
3666	0.00425779
3678	0.00503194
3690	0.00329011
3702	0.00406426
3714	0.00406426
3726	0.00367718
3738	0.00406426
3750	0.00367718
3762	0.00329011
3774	0.00251597
3786	0.00251597
3798	0.00329011
3810	0.0027095
3822	0.00348365
3834	0.0027095
3846	0.00387072
3858	0.00290304
3870	0.00445133
3882	0.00387072
3894	0.00522547
3906	0.00406426
3918	0.00406426
3930	0.00290304
3942	0.00503194
3954	0.00464486
3966	0.00425779
