Infrared Spectrum: 3.5-dimethoxybenzaldehyde
Formula: C 9 H 10 O 3
CAS: 7311-34-4
Origin: Sadtler Research Labs Under US-EPA Contract
1/CM	ABSORBANCE
450	0.00272182
462	0.00368246
474	0.00955305
486	0.00256171
498	0.00197465
510	0.00330888
522	0.00880588
534	0.0122749
546	0.00416278
558	0.00891262
570	0.00667112
582	0.0158506
594	0.0122749
606	0.0146765
618	0.0151034
630	0.013022
642	0.00677786
654	0.0109406
666	0.0246565
678	0.0405071
690	0.02487
702	0.045844
714	0.0754638
726	0.0441895
738	0.0230554
750	0.0126485
762	0.0106204
774	0.00853904
786	0.0127552
798	0.0103002
810	0.0177719
822	0.0238026
834	0.0315944
846	0.0629221
858	0.0508073
870	0.0386925
882	0.0183589
894	0.0113142
906	0.0111008
918	0.0299934
930	0.0399734
942	0.0337292
954	0.0349567
966	0.0273249
978	0.0187325
990	0.0165444
1002	0.0195331
1014	0.0167579
1026	0.0200667
1038	0.0339961
1050	0.0897667
1062	0.184603
1074	0.10503
1086	0.0312209
1098	0.027912
1110	0.0264177
1122	0.0327686
1134	0.0754104
1146	0.236211
1158	0.439867
1170	0.207819
1182	0.090247
1194	0.194156
1206	0.297105
1218	0.122055
1230	0.0395998
1242	0.04483
1254	0.0331421
1266	0.0255638
1278	0.0453636
1290	0.158773
1302	0.219827
1314	0.187325
1326	0.187005
1338	0.161868
1350	0.114423
1362	0.0487259
1374	0.0783457
1386	0.137105
1398	0.0467512
1410	0.0383189
1422	0.0686325
1434	0.152048
1446	0.1101
1458	0.12926
1470	0.212675
1482	0.116985
1494	0.0385324
1506	0.0194263
1518	0.0192662
1530	0.0210274
1542	0.0171848
1554	0.0231088
1566	0.0379987
1578	0.0966513
1590	0.283656
1602	0.396852
1614	0.218386
1626	0.0808007
1638	0.0330888
1650	0.0225217
1662	0.0215077
1674	0.0280187
1686	0.0314343
1698	0.0373049
1710	0.149967
1722	0.53369
1734	0.118799
1746	0.0214543
1758	0.0181988
1770	0.00960642
1782	0.0068846
1794	0.00400267
1806	0.00613743
1818	0.0060307
1830	0.00432289
1842	0.00389594
1854	0.00357572
1866	0.00442963
1878	0.004483
1890	0.00320214
1902	0.00288193
1914	0.00346898
1926	0.0024016
1938	0.00288193
1950	0.0024016
1962	0.00336225
1974	0.00336225
1986	0.00336225
1998	0.00234824
2010	0.00229487
2022	0.0022415
2034	0.00277519
2046	0.00394931
2058	0.00517679
2070	0.00523016
2082	0.00416278
2094	0.00517679
2106	0.00501669
2118	0.00555038
2130	0.00405604
2142	0.00256171
2154	0.00186791
2166	0.00181455
2178	0.00202802
2190	0.00144096
2202	0.00245497
2214	0.00266845
2226	0.00330888
2238	0.00192128
2250	0.00181455
2262	0.00181455
2274	0.00181455
2286	0.000907273
2298	0.000747166
2310	0.00128086
2322	0.000213476
2334	0.000693797
2346	0.000213476
2358	0.00101401
2370	5.3369e-05
2382	0.0015477
2394	0.000640428
2406	0.000587059
2418	5.3369e-05
2430	0.00053369
2442	0.00106738
2454	0.00112075
2466	0.00112075
2478	0.000747166
2490	0.00122749
2502	0.00128086
2514	0.00245497
2526	0.00138759
2538	0.00234824
2550	0.00213476
2562	0.00261508
2574	0.0022415
2586	0.00234824
2598	0.00250834
2610	0.00330888
2622	0.00539027
2634	0.0060307
2646	0.00613743
2658	0.00458973
2670	0.00560374
2682	0.00725818
2694	0.0148366
2706	0.0381055
2718	0.063349
2730	0.041361
2742	0.0169713
2754	0.0101935
2766	0.00939294
2778	0.0158506
2790	0.0492596
2802	0.0879521
2814	0.060307
2826	0.0417346
2838	0.0458973
2850	0.0735425
2862	0.0440294
2874	0.0251368
2886	0.0279654
2898	0.0337292
2910	0.0421081
2922	0.0466979
2934	0.0520881
2946	0.0917947
2958	0.102255
2970	0.0700201
2982	0.0366645
2994	0.031381
3006	0.0690061
3018	0.0754638
3030	0.0227886
3042	0.0135024
3054	0.0108339
3066	0.011421
3078	0.0127552
3090	0.0145164
3102	0.0101935
3114	0.00565711
3126	0.00373583
3138	0.00373583
3150	0.00330888
3162	0.00282856
3174	0.00277519
3186	0.00298866
3198	0.00298866
3210	0.00202802
3222	0.00261508
3234	0.00106738
3246	0.00234824
3258	0.00122749
3270	0.00234824
3282	0.00138759
3294	0.00165444
3306	0.00165444
3318	0.00149433
3330	0.00218813
3342	0.00165444
3354	0.0022415
3366	0.00176118
3378	0.00282856
3390	0.00197465
3402	0.00394931
3414	0.00560374
3426	0.00901936
3438	0.00357572
3450	0.00213476
3462	0.00250834
3474	0.0022415
3486	0.00229487
3498	0.00245497
3510	0.00250834
3522	0.00218813
3534	0.00256171
3546	0.0015477
3558	0.00277519
3570	0.00192128
3582	0.00421615
3594	0.00336225
3606	0.00250834
3618	0.00234824
3630	0.000213476
3642	0.00304203
3654	0.00213476
3666	0.00314877
3678	0.000800535
3690	0.00266845
3702	0.00325551
3714	0.00288193
3726	0.00320214
3738	0.00218813
3750	0.00234824
3762	0.00357572
3774	0.00517679
3786	0.0046431
3798	0.00469647
3810	0.00373583
3822	0.0037892
3834	0.00389594
3846	0.00416278
3858	0.00389594
3870	0.00400267
3882	0.00405604
3894	0.00410941
3906	0.0053369
3918	0.00421615
3930	0.0053369
3942	0.00432289
3954	0.00106738
3966	0.00144096
