Infrared Spectrum: 2-Butenoic acid, 3-amino-, ethyl ester
Formula: C 6 H 11 N O 2
CAS: 7318-00-5
Origin: Sadtler Research Labs Under US-EPA Contract
1/CM	ABSORBANCE
450	0
462	0.00442228
474	0.0115364
486	0.0207655
498	0.0230728
510	0.0194196
522	0.0286487
534	0.0432614
546	0.0849847
558	0.0897915
570	0.0446073
582	0.0234573
594	0.0313405
606	0.0582587
618	0.088061
630	0.0972901
642	0.103251
654	0.100943
666	0.0882533
678	0.0842156
690	0.0884456
702	0.0994051
714	0.0961365
726	0.103058
738	0.116325
750	0.0994051
762	0.0786397
774	0.0865228
786	0.141128
798	0.175161
810	0.104981
822	0.0522983
834	0.0486451
846	0.0546055
858	0.0528751
870	0.0363396
882	0.0292255
894	0.0324941
906	0.0442228
918	0.0376855
930	0.0248032
942	0.0286487
954	0.0484528
966	0.0703719
978	0.0561437
990	0.0359551
1002	0.0438382
1014	0.0757556
1026	0.0874842
1038	0.183621
1050	0.273989
1062	0.170354
1074	0.0920988
1086	0.0926756
1098	0.141321
1110	0.169969
1122	0.186889
1134	0.156702
1146	0.315135
1158	1.14152
1170	1.75199
1182	0.729291
1194	0.278988
1206	0.17593
1218	0.18016
1230	0.232074
1242	0.307445
1254	0.394544
1266	0.461455
1278	0.474337
1290	0.540095
1302	0.73083
1314	0.626233
1326	0.263799
1338	0.125747
1350	0.0824851
1362	0.111518
1374	0.175353
1386	0.159202
1398	0.0903683
1410	0.083831
1422	0.0905606
1434	0.0990206
1446	0.139013
1458	0.161509
1470	0.135745
1482	0.0997897
1494	0.0709487
1506	0.0534519
1518	0.0574896
1530	0.0842156
1542	0.141705
1554	0.269759
1566	0.505101
1578	0.550862
1590	0.331094
1602	0.226305
1614	0.375894
1626	0.773707
1638	1.0873
1650	0.959442
1662	0.443766
1674	0.399736
1686	0.679493
1698	0.578165
1710	0.225921
1722	0.144782
1734	0.125939
1746	0.0872919
1758	0.0728715
1770	0.060566
1782	0.0463378
1794	0.0299946
1806	0.0219191
1818	0.0142282
1830	0.00807547
1842	0.00692183
1854	0.00846001
1866	0.00557592
1878	0.00672955
1890	0.010575
1902	0.0149973
1914	0.0123055
1926	0.00865228
1938	0.00634501
1950	0.00634501
1962	0.00692183
1974	0.00826774
1986	0.00788319
1998	0.00557592
2010	0.0071141
2022	0.00942138
2034	0.00942138
2046	0.00749865
2058	0.00576819
2070	0.00672955
2082	0.00826774
2094	0.00865228
2106	0.00846001
2118	0.010575
2130	0.0119209
2142	0.0107673
2154	0.00865228
2166	0.0071141
2178	0.00519137
2190	0.00480682
2202	0.00519137
2214	0.00576819
2226	0.00672955
2238	0.00672955
2250	0.00749865
2262	0.00865228
2274	0.00865228
2286	0.00865228
2298	0.00692183
2310	0.00615274
2322	0.00653728
2334	0.00634501
2346	0.00653728
2358	0.00653728
2370	0.00326864
2382	0.00615274
2394	0.00538364
2406	0.00634501
2418	0.00769092
2430	0.0071141
2442	0.00576819
2454	0.0049991
2466	0.00634501
2478	0.00730637
2490	0.00653728
2502	0.00596046
2514	0.00519137
2526	0.00615274
2538	0.00769092
2550	0.00730637
2562	0.00576819
2574	0.00423001
2586	0.00384546
2598	0.00384546
2610	0.00384546
2622	0.00403773
2634	0.00403773
2646	0.00461455
2658	0.00442228
2670	0.00480682
2682	0.00442228
2694	0.00480682
2706	0.00596046
2718	0.00672955
2730	0.00942138
2742	0.0111518
2754	0.010575
2766	0.0103827
2778	0.0099982
2790	0.0099982
2802	0.0113441
2814	0.0149973
2826	0.0182659
2838	0.0215346
2850	0.0273028
2862	0.0384546
2874	0.0530673
2886	0.0722946
2898	0.0778706
2910	0.094406
2922	0.119786
2934	0.17593
2946	0.175738
2958	0.147281
2970	0.167278
2982	0.231881
2994	0.221691
3006	0.138629
3018	0.0763324
3030	0.0401851
3042	0.0259569
3054	0.0219191
3066	0.0221114
3078	0.0223037
3090	0.0199964
3102	0.0161509
3114	0.0123055
3126	0.00846001
3138	0.00846001
3150	0.00769092
3162	0.00769092
3174	0.00749865
3186	0.00865228
3198	0.00865228
3210	0.00865228
3222	0.00846001
3234	0.00903683
3246	0.0132668
3258	0.0171123
3270	0.0207655
3282	0.0215346
3294	0.0267259
3306	0.0451842
3318	0.0790242
3330	0.115556
3342	0.117287
3354	0.0784474
3366	0.0449919
3378	0.0230728
3390	0.0107673
3402	0.00865228
3414	0.00942138
3426	0.00903683
3438	0.00807547
3450	0.00980592
3462	0.0140359
3474	0.0199964
3486	0.02961
3498	0.0480682
3510	0.0934447
3522	0.159971
3534	0.136898
3546	0.0509523
3558	0.0167278
3570	0.0132668
3582	0.00769092
3594	0.00807547
3606	0.00576819
3618	0.00480682
3630	0.00788319
3642	0.0049991
3654	0.00980592
3666	0.00442228
3678	0.0049991
3690	0.00634501
3702	0.00519137
3714	0.00576819
3726	0.00346091
3738	0.00403773
3750	0.00749865
3762	0.00346091
3774	0.00346091
3786	0.00346091
3798	0.0049991
3810	0.00346091
3822	0.00730637
3834	0.00423001
3846	0.00480682
3858	0.0049991
3870	0.00519137
3882	0.00538364
3894	0.00346091
3906	0.00730637
3918	0.00346091
3930	0.00384546
3942	0.00384546
3954	0.00692183
3966	0.00596046
