Infrared Spectrum: Oxirane, tetradecyl-
Formula: C 16 H 32 O
CAS: 7320-37-8
Origin: Sadtler Research Labs Under US-EPA Contract
1/CM	ABSORBANCE
450	0.00419795
462	0.00294991
474	0.00385757
486	0.00476524
498	0.00329028
510	0.00589982
522	0.00646711
534	0.00226916
546	0.00397103
558	0.0035172
570	0.000907664
582	0.00499215
594	0.00408449
606	0.00385757
618	0.00397103
630	0.00317682
642	0.0013615
654	0.00385757
666	0.00272299
678	0.00272299
690	0.00487869
702	0.00873627
714	0.0170187
726	0.0191744
738	0.0173591
750	0.0172456
762	0.0164514
774	0.0165649
786	0.0174725
798	0.0186071
810	0.0220109
822	0.0306337
834	0.0442486
846	0.0432275
858	0.0279107
870	0.0198551
882	0.0183802
894	0.0184937
906	0.0232589
918	0.0289318
930	0.0256415
942	0.0196282
954	0.0153168
966	0.0128208
978	0.0120265
990	0.010892
1002	0.0105516
1014	0.0091901
1026	0.00896318
1038	0.00760169
1050	0.0078286
1062	0.00760169
1074	0.00828243
1086	0.00794206
1098	0.00816898
1110	0.0078286
1122	0.00941701
1134	0.0117996
1146	0.00907664
1158	0.00771514
1170	0.00737477
1182	0.00726131
1194	0.00771514
1206	0.00748823
1218	0.00828243
1230	0.00964393
1242	0.0115727
1254	0.016111
1266	0.0174725
1278	0.0142957
1290	0.0147495
1302	0.0178129
1314	0.0181533
1326	0.0162245
1338	0.0187206
1350	0.0276838
1362	0.0280241
1374	0.0238262
1386	0.0220109
1398	0.0189475
1410	0.0314279
1422	0.0195148
1434	0.0237127
1446	0.0449294
1458	0.0756765
1470	0.073067
1482	0.0326759
1494	0.0179264
1506	0.00975739
1518	0.00714785
1530	0.00521907
1542	0.00453832
1554	0.00408449
1566	0.0035172
1578	0.00340374
1590	0.00306337
1602	0.00260953
1614	0.00226916
1626	0.00294991
1638	0.00306337
1650	0.00329028
1662	0.00204224
1674	0.00238262
1686	0.0021557
1698	0.0021557
1710	0.00238262
1722	0.00306337
1734	0.0043114
1746	0.00476524
1758	0.00306337
1770	0.00260953
1782	0.00170187
1794	0.00158841
1806	0.00113458
1818	0.000794206
1830	0.00124804
1842	0.000680748
1854	0.000907664
1866	0.000794206
1878	0.00056729
1890	0.000794206
1902	0.000680748
1914	0.000794206
1926	0.00056729
1938	0.000794206
1950	0.000794206
1962	0.00102112
1974	0.00113458
1986	0.000907664
1998	0.00113458
2010	0.00113458
2022	0.00170187
2034	0.00170187
2046	0.00170187
2058	0.00170187
2070	0.00113458
2082	0.00113458
2094	0.00102112
2106	0.000680748
2118	0.000907664
2130	0.00102112
2142	0.000794206
2154	0.00113458
2166	0.00113458
2178	0.00124804
2190	0.00113458
2202	0.00124804
2214	0.00124804
2226	0.0013615
2238	0.00124804
2250	0.0021557
2262	0.00170187
2274	0.00147495
2286	0.0013615
2298	0.000794206
2310	0.000453832
2322	0.000113458
2334	0.000113458
2346	0.000113458
2358	0.000113458
2370	0.000113458
2382	0.000340374
2394	0.00124804
2406	0.0013615
2418	0.00113458
2430	0.00124804
2442	0.00102112
2454	0.000907664
2466	0.00102112
2478	0.00102112
2490	0.000794206
2502	0.00147495
2514	0.00158841
2526	0.00204224
2538	0.00260953
2550	0.00249608
2562	0.00260953
2574	0.00294991
2586	0.00363066
2598	0.00419795
2610	0.00465178
2622	0.00487869
2634	0.00601327
2646	0.00624019
2658	0.00748823
2670	0.00896318
2682	0.00953047
2694	0.0099843
2706	0.00850935
2718	0.00839589
2730	0.00873627
2742	0.00987085
2754	0.0099843
2766	0.0105516
2778	0.01214
2790	0.0152034
2802	0.0205359
2814	0.0262088
2826	0.0366469
2838	0.057977
2850	0.133654
2862	0.415143
2874	0.301912
2886	0.190383
2898	0.186865
2910	0.319838
2922	0.602235
2934	1.13458
2946	0.689144
2958	0.30679
2970	0.286255
2982	0.164174
2994	0.101545
3006	0.0731804
3018	0.045837
3030	0.039143
3042	0.0647845
3054	0.0534387
3066	0.0192879
3078	0.0122535
3090	0.00964393
3102	0.0070344
3114	0.00533253
3126	0.00465178
3138	0.00385757
3150	0.00408449
3162	0.00408449
3174	0.00329028
3186	0.00272299
3198	0.00204224
3210	0.00204224
3222	0.00158841
3234	0.00158841
3246	0.000794206
3258	0.00102112
3270	0.0013615
3282	0.00147495
3294	0.00056729
3306	0.00102112
3318	0.00056729
3330	0.00102112
3342	0.00147495
3354	0.000907664
3366	0.00192879
3378	0.000907664
3390	0.00124804
3402	0.00124804
3414	0.00170187
3426	0.000794206
3438	0.00113458
3450	0.00056729
3462	0.00124804
3474	0.00056729
3486	0.000340374
3498	0.00113458
3510	0.000340374
3522	0.0013615
3534	0.00124804
3546	0.000113458
3558	0.00102112
3570	0.000226916
3582	0.00124804
3594	0.00147495
3606	0.00124804
3618	0.00147495
3630	0.00260953
3642	0.00238262
3654	0.00170187
3666	0.00158841
3678	0.00317682
3690	0.00158841
3702	0.00181533
3714	0.00340374
3726	0.00147495
3738	0.00226916
3750	0.0021557
3762	0.00238262
3774	0.00181533
3786	0.00158841
3798	0.00181533
3810	0.0021557
3822	0.00260953
3834	0.00102112
3846	0.00260953
3858	0.00113458
3870	0.0021557
3882	0.00260953
3894	0.0021557
3906	0.0021557
3918	0.000907664
3930	0.00249608
3942	0.000794206
3954	0.00238262
3966	0.00124804
