Infrared Spectrum: 3-Cyclohexene-1,1-dimethanol, 6-methyl-,
Formula: C 9 H 16 O 2
CAS: 7328-07-6
Origin: Sadtler Research Labs Under US-EPA Contract
1/CM	ABSORBANCE
450	0.0759249
462	0.0257152
474	0.0365736
486	0.0229795
498	0.0301343
510	0.0424237
522	0.00782818
534	0.018855
546	0.00795444
558	0.0262623
570	0.0126261
582	0.0194021
594	0.015951
606	0.0171715
618	0.0127944
630	0.0109005
642	0.047895
654	0.154712
666	0.179375
678	0.0678022
690	0.0294609
702	0.0224324
714	0.0224745
726	0.0252101
738	0.0252943
750	0.0148988
762	0.0131732
774	0.0207068
786	0.0167506
798	0.0239054
810	0.0283666
822	0.031439
834	0.0286192
846	0.0366578
858	0.0400668
870	0.0451594
882	0.0433496
894	0.0448647
906	0.0433496
918	0.0549235
930	0.0549656
942	0.0518091
954	0.0496627
966	0.0563545
978	0.0855208
990	0.155764
1002	0.203743
1014	0.255847
1026	0.330215
1038	0.39486
1050	0.348985
1062	0.256184
1074	0.206773
1086	0.177439
1098	0.145747
1110	0.131648
1122	0.116918
1134	0.10084
1146	0.0972631
1158	0.0971368
1170	0.0962109
1182	0.0847632
1194	0.0965476
1206	0.0911604
1218	0.0886773
1230	0.0827851
1242	0.0738206
1254	0.0864888
1266	0.109679
1278	0.0881723
1290	0.072095
1302	0.0631305
1314	0.0608578
1326	0.0632147
1338	0.0688964
1350	0.0657399
1362	0.0647298
1374	0.080807
1386	0.101766
1398	0.0826589
1410	0.0729368
1422	0.0688543
1434	0.0800074
1446	0.0887615
1458	0.0847211
1470	0.0962951
1482	0.0631726
1494	0.0293346
1506	0.019823
1518	0.0127944
1530	0.00753357
1542	0.00319861
1554	0.00513461
1566	0.00631305
1578	0.00799653
1590	0.00900662
1602	0.0138045
1614	0.0199072
1626	0.0176345
1638	0.0162456
1650	0.0240738
1662	0.0229374
1674	0.0105217
1686	0.0064814
1698	0.010648
1710	0.0145621
1722	0.0165402
1734	0.0276932
1746	0.0273986
1758	0.0148146
1770	0.0124998
1782	0.0103534
1794	0.00782818
1806	0.00736522
1818	0.00631305
1830	0.00446122
1842	0.00214644
1854	0.00176765
1866	0.00260939
1878	0.00117844
1890	0.00122052
1902	0.00134678
1914	0.00155722
1926	0.00303026
1938	0.00159931
1950	0.00105218
1962	0.000757566
1974	0.000799653
1986	0.00143096
1998	0.00189391
2010	0.00210435
2022	0.00265148
2034	0.00286192
2046	0.00277774
2058	0.0032407
2070	0.00366157
2082	0.00265148
2094	0.00180974
2106	0.00138887
2118	0.00122052
2130	0.00113635
2142	0.00101009
2154	0.000715479
2166	0
2178	0.000252522
2190	0.00084174
2202	0.0013047
2214	0.00122052
2226	0.000673392
2238	0.000378783
2250	0.000462957
2262	0.00155722
2274	0.00307235
2286	0.0061447
2298	0.0109426
2310	0.0144779
2322	0.0103955
2334	0.00765983
2346	0.0135941
2358	0.00989044
2370	0.00951166
2382	0.0107322
2394	0.00239896
2406	0.00235687
2418	0.00244105
2430	0.00315652
2442	0.00319861
2454	0.00265148
2466	0.00277774
2478	0.00244105
2490	0.00260939
2502	0.0022727
2514	0.00256731
2526	0.00143096
2538	0.00239896
2550	0.00315652
2562	0.00399826
2574	0.00429287
2586	0.0045454
2598	0.00437705
2610	0.00479792
2622	0.00639722
2634	0.00702853
2646	0.00799653
2658	0.00909079
2670	0.00993253
2682	0.0108164
2694	0.011616
2706	0.0130049
2718	0.0142254
2730	0.016456
2742	0.0191917
2754	0.0216327
2766	0.0245788
2778	0.0271882
2790	0.0291242
2802	0.0336275
2814	0.0401931
2826	0.0588376
2838	0.119611
2850	0.196715
2862	0.198398
2874	0.222598
2886	0.346797
2898	0.42087
2910	0.406729
2922	0.387369
2934	0.357908
2946	0.318893
2958	0.293473
2970	0.312159
2982	0.227985
2994	0.107743
3006	0.0486526
3018	0.0679705
3030	0.235856
3042	0.192085
3054	0.0295451
3066	0.0255468
3078	0.0205385
3090	0.0105638
3102	0.0071127
3114	0.00547131
3126	0.00492418
3138	0.00441914
3150	0.00425079
3162	0.00269357
3174	0.00235687
3186	0.00269357
3198	0.00277774
3210	0.00269357
3222	0.00189391
3234	0.00143096
3246	0.000210435
3258	0.001936
3270	0.00202018
3282	0.002904
3294	0.00446122
3306	0.00315652
3318	0.000168348
3330	0.00105218
3342	0.00164139
3354	0.00294609
3366	0.00223061
3378	0.00252522
3390	0.00235687
3402	0.00138887
3414	0.00303026
3426	0.00382992
3438	0.0042087
3450	0.00433496
3462	0.00467166
3474	0.00534505
3486	0.00416661
3498	0.00467166
3510	0.00484
3522	0.00635514
3534	0.00530296
3546	0.00652348
3558	0.00913288
3570	0.0198651
3582	0.0342167
3594	0.0761354
3606	0.0898137
3618	0.0566491
3630	0.0436863
3642	0.0428025
3654	0.060479
3666	0.102861
3678	0.0909921
3690	0.0357739
3702	0.0170031
3714	0.0109005
3726	0.0100588
3738	0.00622888
3750	0.00576592
3762	0.00404035
3774	0.00437705
3786	0.00618679
3798	0.00812279
3810	0.00854366
3822	0.00340905
3834	0.00471374
3846	0.00854366
3858	0.0032407
3870	0.00479792
3882	0.0100588
3894	0.00206226
3906	0.00652348
3918	0.00871201
3930	0.00749149
3942	0.00673392
3954	0.00159931
3966	0.00189391
