Infrared Spectrum: Diazene, bis(2-chlorophenyl)-
Formula: C 12 H 8 Cl 2 N 2
CAS: 7334-33-0
Origin: Sadtler Research Labs Under US-EPA Contract
1/CM	ABSORBANCE
450	0.0248851
462	0.0685015
474	0.0018866
486	0.00920839
498	0.0118137
510	0.0213365
522	0.0200788
534	0.0159462
546	0.0683667
558	0.0743859
570	0.0535884
582	0.0227739
594	0.0190007
606	0.014419
618	0.0197194
630	0.0139698
642	0.0141495
654	0.0127121
666	0.0175633
678	0.0751495
690	0.0959919
702	0.0298711
714	0.0464013
726	0.15223
738	0.148817
750	0.194859
762	0.44919
774	0.0660758
786	0.0168895
798	0.0127121
810	0.0157666
822	0.0209323
834	0.0258733
846	0.0189109
858	0.0125773
870	0.0122629
882	0.0111848
894	0.00691753
906	0.00813034
918	0.0113645
930	0.0114094
942	0.0205729
954	0.0191355
966	0.00857953
978	0.00965758
990	0.0107356
1002	0.0138351
1014	0.0190007
1026	0.0625722
1038	0.077665
1050	0.0827857
1062	0.326247
1074	0.107626
1086	0.0178778
1098	0.0114094
1110	0.0132511
1122	0.0362946
1134	0.0705677
1146	0.0207975
1158	0.0496355
1170	0.0148233
1182	0.0132062
1194	0.0115442
1206	0.0169794
1218	0.0180574
1230	0.0119035
1242	0.0167548
1254	0.0757334
1266	0.0297364
1278	0.0141944
1290	0.0163056
1302	0.00875921
1314	0.00570471
1326	0.00556996
1338	0.00781591
1350	0.00817526
1362	0.011095
1374	0.0108704
1386	0.0112747
1398	0.0128918
1410	0.0207526
1422	0.0331502
1434	0.070433
1446	0.102325
1458	0.121057
1470	0.215387
1482	0.0673336
1494	0.0281193
1506	0.023852
1518	0.0224595
1530	0.0149131
1542	0.0219205
1554	0.0203034
1566	0.0345876
1578	0.0718255
1590	0.0559242
1602	0.023313
1614	0.0243012
1626	0.0137003
1638	0.0113196
1650	0.0126672
1662	0.00363844
1674	0.0110501
1686	0.0147784
1698	0.0200788
1710	0.0130265
1722	0.0114543
1734	0.00889396
1746	0.00516569
1758	0.00669293
1770	0.00700736
1782	0.00628866
1794	0.0125773
1806	0.0163505
1818	0.00965758
1830	0.0130265
1842	0.0097025
1854	0.00646834
1866	0.00687261
1878	0.00714212
1890	0.0112747
1902	0.010511
1914	0.0164404
1926	0.017743
1938	0.0112747
1950	0.0160361
1962	0.00642342
1974	0.00341384
1986	0.0026053
1998	0.00220103
2010	0.00287482
2022	0.00233579
2034	0.00359352
2046	0.00305449
2058	0.00242563
2070	0.00305449
2082	0.0026053
2094	0.00323417
2106	0.00229087
2118	0.0028299
2130	0.00175184
2142	0.00224595
2154	0.000853461
2166	0.000853461
2178	0.000539028
2190	4.4919e-05
2202	0.00112298
2214	0.00197644
2226	0.00202135
2238	0.00251546
2250	0.00305449
2262	0.00265022
2274	0.00381811
2286	0.00476141
2298	0.00467158
2310	0.00705228
2322	0.00777099
2334	0.00781591
2346	0.0112747
2358	0.00345876
2370	0.0100169
2382	0.00687261
2394	0.0028299
2406	0.00363844
2418	0.00404271
2430	0.00300957
2442	0.00336893
2454	0.00372828
2466	0.00350368
2478	0.00498601
2490	0.00507585
2502	0.00597423
2514	0.00642342
2526	0.00633358
2538	0.00822018
2550	0.00624374
2562	0.0047165
2574	0.00476141
2586	0.00530044
2598	0.00462666
2610	0.0061539
2622	0.00583947
2634	0.00691753
2646	0.00669293
2658	0.00565979
2670	0.0047165
2682	0.0052106
2694	0.00539028
2706	0.00619882
2718	0.0070972
2730	0.00691753
2742	0.00687261
2754	0.00624374
2766	0.00592931
2778	0.00512077
2790	0.00444698
2802	0.00507585
2814	0.0052106
2826	0.00601915
2838	0.00642342
2850	0.00610898
2862	0.00642342
2874	0.00565979
2886	0.00444698
2898	0.00220103
2910	0.00269514
2922	0.00516569
2934	0.00691753
2946	0.00642342
2958	0.00539028
2970	0.00485125
2982	0.00741164
2994	0.00952283
3006	0.0100169
3018	0.0116789
3030	0.0143292
3042	0.0163505
3054	0.0245258
3066	0.0668844
3078	0.164718
3090	0.0639197
3102	0.0134308
3114	0.0063785
3126	0.00763623
3138	0.00871429
3150	0.0100619
3162	0.00844477
3174	0.00404271
3186	0.00516569
3198	0.00408763
3210	0.00381811
3222	0.00422239
3234	0.0047165
3246	0.0054352
3258	0.00592931
3270	0.00413255
3282	0.00341384
3294	0.00444698
3306	0.00381811
3318	0.00476141
3330	0.00350368
3342	0.00332401
3354	0.00327909
3366	0.00341384
3378	0.00323417
3390	0.00336893
3402	0.00300957
3414	0.00202135
3426	0.00314433
3438	0.00314433
3450	0.001662
3462	0.00247055
3474	0.00193152
3486	0.0026053
3498	0.0026053
3510	0.00296465
3522	0.00251546
3534	0.00233579
3546	0.00116789
3558	0.00148233
3570	0.00291974
3582	0.00458174
3594	0.00323417
3606	0.00395287
3618	0.00404271
3630	0.00552504
3642	0.00381811
3654	0.00498601
3666	0.00390795
3678	0.00184168
3690	0.00130265
3702	0.00314433
3714	0.00655817
3726	0.000988218
3738	0.00345876
3750	0.00570471
3762	0.00291974
3774	0.00318925
3786	0.00300957
3798	0.00107806
3810	0.00682769
3822	0.0035486
3834	0.00179676
3846	0.00422239
3858	0.00247055
3870	0.0042673
3882	0.00368336
3894	0.00229087
3906	0.00866937
3918	0.00179676
3930	0.00476141
3942	0.000853461
3954	0.00215611
3966	0.00669293
