Infrared Spectrum: 4-Methyl itaconate
Formula: C 6 H 8 O 4
CAS: 7338-27-4
Origin: Sadtler Research Labs Under US-EPA Contract
1/CM	ABSORBANCE
450	0.00383982
462	0.00383982
474	0.00063997
486	0.00691168
498	0.0125434
510	0.0325105
522	0.0569573
534	0.0819162
546	0.110331
558	0.13145
570	0.160504
582	0.136186
594	0.104187
606	0.0716766
618	0.0440299
630	0.0325105
642	0.0287987
654	0.0261108
666	0.0202231
678	0.00895958
690	0.00345584
702	0.00281587
714	0.00179192
726	0.00793563
738	0.0190711
750	0.022399
762	0.0163832
774	0.021631
786	0.0253428
798	0.0326385
810	0.0720606
822	0.0792283
834	0.043646
846	0.0286707
858	0.0236789
870	0.0331504
882	0.0490217
894	0.0661729
906	0.0518376
918	0.0198391
930	0.0359663
942	0.0869079
954	0.116859
966	0.0739805
978	0.0518376
990	0.0483817
1002	0.0661729
1014	0.133754
1026	0.176504
1038	0.085372
1050	0.0482537
1062	0.0531175
1074	0.0591332
1086	0.0965075
1098	0.305906
1110	0.730846
1122	0.636386
1134	0.385902
1146	0.312433
1158	0.368239
1170	0.418668
1182	0.356591
1194	0.316785
1206	0.294642
1218	0.256116
1230	0.25714
1242	0.271091
1254	0.297202
1266	0.267507
1278	0.17676
1290	0.120698
1302	0.117243
1314	0.170488
1326	0.287091
1338	0.286707
1350	0.164984
1362	0.120186
1374	0.0948436
1386	0.0797403
1398	0.0783323
1410	0.0948436
1422	0.121466
1434	0.152825
1446	0.131066
1458	0.0514536
1470	0.0343024
1482	0.0226549
1494	0.0149753
1506	0.0112635
1518	0.00883159
1530	0.00793563
1542	0.00806362
1554	0.00742365
1566	0.0063997
1578	0.00563174
1590	0.00550374
1602	0.00691168
1614	0.0148473
1626	0.0331504
1638	0.0618211
1650	0.0513256
1662	0.0176632
1674	0.0115195
1686	0.0194551
1698	0.0351984
1710	0.0618211
1722	0.113787
1734	0.214134
1746	0.554086
1758	1.14286
1770	1.15809
1782	0.575461
1794	0.333552
1806	0.207862
1818	0.110331
1830	0.0567013
1842	0.0303346
1854	0.0312305
1866	0.0275187
1878	0.0135674
1890	0.00985554
1902	0.00908757
1914	0.00601572
1926	0.00179192
1938	0.000127994
1950	0.000383982
1962	0.00063997
1974	0.000511976
1986	0.000255988
1998	0.000895958
2010	0.00153593
2022	0.00281587
2034	0.0042238
2046	0.00486377
2058	0.00345584
2070	0.00332784
2082	0.00281587
2094	0.0021759
2106	0.00166392
2118	0.00153593
2130	0.00140793
2142	0.00115195
2154	0.00115195
2166	0.00140793
2178	0.00140793
2190	0.00243189
2202	0.00345584
2214	0.0043518
2226	0.00486377
2238	0.00396781
2250	0.00319985
2262	0.00268787
2274	0.00332784
2286	0.00383982
2298	0.00460778
2310	0.00524775
2322	0.00499177
2334	0.00396781
2346	0.00614371
2358	0.00588772
2370	0.00601572
2382	0.00793563
2394	0.00575973
2406	0.00550374
2418	0.00575973
2430	0.00601572
2442	0.00652769
2454	0.0063997
2466	0.00665569
2478	0.00691168
2490	0.00627171
2502	0.0063997
2514	0.00627171
2526	0.00627171
2538	0.00614371
2550	0.00550374
2562	0.00524775
2574	0.00499177
2586	0.00460778
2598	0.00486377
2610	0.00447979
2622	0.00396781
2634	0.00371183
2646	0.00307186
2658	0.00294386
2670	0.00243189
2682	0.00191991
2694	0.00153593
2706	0.00153593
2718	0.00102395
2730	0.000511976
2742	0.000511976
2754	0.000511976
2766	0
2778	0.000127994
2790	0.000255988
2802	0.00127994
2814	0.00281587
2826	0.00447979
2838	0.0085756
2850	0.020991
2862	0.0191991
2874	0.0113915
2886	0.0119034
2898	0.0172792
2910	0.0240629
2922	0.0295666
2934	0.0382702
2946	0.0554214
2958	0.114555
2970	0.107003
2982	0.0415981
2994	0.0400621
3006	0.0485097
3018	0.043262
3030	0.0355823
3042	0.0253428
3054	0.0158713
3066	0.0120314
3078	0.00959955
3090	0.00755165
3102	0.00716766
3114	0.00895958
3126	0.00511976
3138	0.00153593
3150	0.00115195
3162	0.000511976
3174	0.000383982
3186	0.000383982
3198	0.000383982
3210	0
3222	0.000255988
3234	0.00063997
3246	0.000767964
3258	0.000511976
3270	0.00115195
3282	0.000511976
3294	0.00140793
3306	0.00153593
3318	0.00191991
3330	0.00191991
3342	0.00179192
3354	0.00179192
3366	0.00140793
3378	0.00166392
3390	0.00191991
3402	0.00153593
3414	0.00102395
3426	0.000895958
3438	0.000767964
3450	0.00115195
3462	0.00140793
3474	0.00332784
3486	0.00601572
3498	0.00921557
3510	0.00947156
3522	0.00716766
3534	0.00396781
3546	0.00447979
3558	0.0121594
3570	0.0655329
3582	0.265204
3594	0.220918
3606	0.0345584
3618	0.00998353
3630	0.00793563
3642	0.00601572
3654	0.00319985
3666	0.00294386
3678	0.00294386
3690	0.00230389
3702	0.00243189
3714	0.00307186
3726	0.00371183
3738	0.00307186
3750	0.00153593
3762	0.00102395
3774	0.00115195
3786	0
3798	0.000383982
3810	0.000511976
3822	0
3834	0.00102395
3846	0.00153593
3858	0.00153593
3870	0.000895958
3882	0.000511976
3894	0.00127994
3906	0.00127994
3918	0.00140793
3930	0.00140793
3942	0.00230389
3954	0.00179192
3966	0.0020479
