Infrared Spectrum: 1-Hexanethiol, 2-ethyl-
Formula: C 8 H 18 S
CAS: 7341-17-5
Origin: Sadtler Research Labs Under US-EPA Contract
1/CM	ABSORBANCE
450	0
462	0.0475636
474	0.0528185
486	0.0512016
498	0.0501237
510	0.0459467
522	0.0571302
534	0.0437908
546	0.0536269
558	0.0415002
570	0.0394791
582	0.0417697
594	0.0355716
606	0.0359758
618	0.0402876
630	0.0381317
642	0.0415002
654	0.0392096
666	0.0536269
678	0.0420392
690	0.0688527
702	0.062924
714	0.0738381
726	0.0706043
738	0.0714127
750	0.0746465
762	0.0742423
774	0.082192
786	0.0887943
798	0.0677747
810	0.0594208
822	0.0536269
834	0.0544354
846	0.060364
858	0.0564565
870	0.0606334
882	0.0644062
894	0.0703348
906	0.0759939
918	0.0766676
930	0.0797667
942	0.0803056
954	0.0809793
966	0.0836742
978	0.0838089
990	0.079093
1002	0.0719517
1014	0.0654841
1026	0.0623851
1038	0.0610377
1050	0.0600945
1062	0.060364
1074	0.0584776
1086	0.0583429
1098	0.0594208
1110	0.0606334
1122	0.0587471
1134	0.0645409
1146	0.0641367
1158	0.056726
1170	0.0571302
1182	0.0638672
1194	0.0646757
1206	0.0644062
1218	0.0702001
1230	0.0706043
1242	0.0770719
1254	0.0832699
1266	0.0901417
1278	0.0932408
1290	0.102268
1302	0.094184
1314	0.0714127
1326	0.0645409
1338	0.0703348
1350	0.0824615
1362	0.0755897
1374	0.0869079
1386	0.132316
1398	0.0776108
1410	0.0565912
1422	0.0700653
1434	0.121267
1446	0.145925
1458	0.214238
1470	0.229464
1482	0.112509
1494	0.0604987
1506	0.0499889
1518	0.0459467
1530	0.0429824
1542	0.0435213
1554	0.0419045
1566	0.0398833
1578	0.0401528
1590	0.0409613
1602	0.0409613
1614	0.0390749
1626	0.0382664
1638	0.0386707
1650	0.0386707
1662	0.0358411
1674	0.0357064
1686	0.0378622
1698	0.0382664
1710	0.0361106
1722	0.0363801
1734	0.0342242
1746	0.0320684
1758	0.0309904
1770	0.0300472
1782	0.029643
1794	0.0277566
1806	0.0285651
1818	0.0282956
1830	0.0276219
1842	0.026544
1854	0.0276219
1866	0.0262745
1878	0.0269482
1890	0.0266787
1902	0.0266787
1914	0.0266787
1926	0.026005
1938	0.0266787
1950	0.0264092
1962	0.026544
1974	0.0264092
1986	0.0258703
1998	0.0262745
2010	0.026005
2022	0.026005
2034	0.0264092
2046	0.0262745
2058	0.0264092
2070	0.0264092
2082	0.0257355
2094	0.0264092
2106	0.0264092
2118	0.0262745
2130	0.0269482
2142	0.0268135
2154	0.0272177
2166	0.0269482
2178	0.0276219
2190	0.0269482
2202	0.0269482
2214	0.0269482
2226	0.0270829
2238	0.0273524
2250	0.0269482
2262	0.0268135
2274	0.0268135
2286	0.0253313
2298	0.0230407
2310	0.0212891
2322	0.021828
2334	0.0250618
2346	0.0246576
2358	0.0238492
2370	0.0285651
2382	0.0272177
2394	0.0285651
2406	0.0282956
2418	0.0284304
2430	0.0277566
2442	0.0270829
2454	0.0272177
2466	0.0269482
2478	0.0266787
2490	0.0268135
2502	0.0269482
2514	0.0278914
2526	0.0286998
2538	0.0288346
2550	0.030182
2562	0.0312599
2574	0.0340895
2586	0.0420392
2598	0.0499889
2610	0.0398833
2622	0.0367843
2634	0.0367843
2646	0.0375927
2658	0.0385359
2670	0.0404223
2682	0.0419045
2694	0.0423087
2706	0.0423087
2718	0.0423087
2730	0.044195
2742	0.048911
2754	0.0485068
2766	0.0463509
2778	0.0471593
2790	0.0529532
2802	0.0596903
2814	0.0688527
2826	0.0801709
2838	0.106984
2850	0.193623
2862	0.42659
2874	0.562948
2886	0.576961
2898	0.413116
2910	0.460679
2922	0.804
2934	1.26657
2946	1.06149
2958	0.800496
2970	1.34741
2982	0.640289
2994	0.182574
3006	0.113856
3018	0.0852911
3030	0.0724907
3042	0.0625198
3054	0.055648
3066	0.0498542
3078	0.0464856
3090	0.0429824
3102	0.0423087
3114	0.0394791
3126	0.0381317
3138	0.0359758
3150	0.0346284
3162	0.0344937
3174	0.0330115
3186	0.0315294
3198	0.0297778
3210	0.0281609
3222	0.0272177
3234	0.025466
3246	0.0256008
3258	0.0250618
3270	0.0237144
3282	0.0249271
3294	0.0242534
3306	0.0237144
3318	0.0238492
3330	0.0235797
3342	0.0245229
3354	0.0238492
3366	0.0238492
3378	0.0243881
3390	0.022906
3402	0.0237144
3414	0.0230407
3426	0.0237144
3438	0.0222323
3450	0.0225017
3462	0.0239839
3474	0.0233102
3486	0.0233102
3498	0.0230407
3510	0.0227712
3522	0.022906
3534	0.0235797
3546	0.022367
3558	0.0227712
3570	0.0227712
3582	0.0237144
3594	0.0253313
3606	0.022906
3618	0.0243881
3630	0.025466
3642	0.0233102
3654	0.0268135
3666	0.0241186
3678	0.0231755
3690	0.0257355
3702	0.0235797
3714	0.0247923
3726	0.0211543
3738	0.0212891
3750	0.026005
3762	0.022906
3774	0.0234449
3786	0.022367
3798	0.0247923
3810	0.0222323
3822	0.0250618
3834	0.0245229
3846	0.0233102
3858	0.0251966
3870	0.025466
3882	0.026544
3894	0.0247923
3906	0.0235797
3918	0.0231755
3930	0.0250618
3942	0.0241186
3954	0.0276219
3966	0.0251966
