Infrared Spectrum: Benzo[b]thiophene, 3-bromo-,
Formula: C 8 H 5 Br S
CAS: 7342-82-7
Origin: Sadtler Research Labs Under US-EPA Contract
1/CM	ABSORBANCE
450	0
462	0.00513662
474	0.0165857
486	0.00959248
498	0.0198038
510	0.00550794
522	0.00680757
534	0.00940682
546	0.0066838
558	0.00414643
570	0.00606493
582	0.0047653
594	0.00637436
606	0.00724078
618	0.00513662
630	0.00581738
642	0.00854041
654	0.00643625
666	0.00235171
678	0.0129344
690	0.0352756
702	0.180091
714	0.0785346
726	0.456417
738	0.29811
750	0.61887
762	0.375654
774	0.0954916
786	0.0118823
798	0.0116348
810	0.0652908
822	0.241297
834	0.0693134
846	0.0176378
858	0.0105208
870	0.0108302
882	0.00829286
894	0.00779776
906	0.0102114
918	0.0413405
930	0.323731
942	0.0858992
954	0.0287156
966	0.0174521
978	0.00643625
990	0.0133057
1002	0.0188136
1014	0.0681376
1026	0.0451775
1038	0.00891173
1050	0.029025
1062	0.112077
1074	0.0414643
1086	0.01312
1098	0.00662191
1110	0.0105827
1122	0.0216605
1134	0.0359563
1146	0.0594734
1158	0.0238884
1170	0.0143578
1182	0.00841663
1194	0.00946871
1206	0.0135533
1218	0.0127487
1230	0.0191231
1242	0.030696
1254	0.175759
1266	0.0760591
1278	0.00847852
1290	0.0125012
1302	0.0454251
1314	0.208683
1326	0.167157
1338	0.0441254
1350	0.00854041
1362	0.00693134
1374	0.00420832
1386	0.00464152
1398	0.00897361
1410	0.04493
1422	0.123217
1434	0.0808244
1446	0.0249405
1458	0.0360801
1470	0.0227744
1482	0.0341616
1494	0.100566
1506	0.0574311
1518	0.0683851
1530	0.0712319
1542	0.00829286
1554	0.0157193
1566	0.0219699
1578	0.0135533
1590	0.0139865
1602	0.0222793
1614	0.00755021
1626	0.00396077
1638	0.00408454
1650	0.00371322
1662	0.00971626
1674	0.00878795
1686	0.0179472
1698	0.013677
1710	0.00656002
1722	0.00563172
1734	0.00625059
1746	0.00600304
1758	0.00680757
1770	0.0138627
1782	0.0294582
1794	0.0138627
1806	0.0100257
1818	0.019742
1830	0.00773587
1842	0.00346567
1854	0.00402265
1866	0.0101495
1878	0.0121917
1890	0.00674568
1902	0.0220937
1914	0.0146053
1926	0.00711701
1938	0.0214129
1950	0.0123155
1962	0.00457964
1974	0.00433209
1986	0.00290869
1998	0.00290869
2010	0.00278491
2022	0.00241359
2034	0.00303246
2046	0.00290869
2058	0.00303246
2070	0.00358945
2082	0.00352756
2094	0.00266114
2106	0.00303246
2118	0.00303246
2130	0.00358945
2142	0.00309435
2154	0.00241359
2166	0.00259925
2178	0.0033419
2190	0.00433209
2202	0.00358945
2214	0.00340378
2226	0.00383699
2238	0.0033419
2250	0.00358945
2262	0.00420832
2274	0.00550794
2286	0.0052604
2298	0.00612681
2310	0.00798342
2322	0.00872607
2334	0.00445586
2346	0.00402265
2358	0.00383699
2370	0.00278491
2382	0.00371322
2394	0.00371322
2406	0.00433209
2418	0.00532228
2430	0.0047653
2442	0.00414643
2454	0.00433209
2466	0.00445586
2478	0.0042702
2490	0.00371322
2502	0.00297058
2514	0.00315624
2526	0.00358945
2538	0.00352756
2550	0.00420832
2562	0.00513662
2574	0.00457964
2586	0.00396077
2598	0.00482719
2610	0.00606493
2622	0.00717889
2634	0.0061887
2646	0.00513662
2658	0.00445586
2670	0.00377511
2682	0.00340378
2694	0.00297058
2706	0.00315624
2718	0.0033419
2730	0.00365133
2742	0.00346567
2754	0.00340378
2766	0.00371322
2778	0.00358945
2790	0.00346567
2802	0.0033419
2814	0.00358945
2826	0.00371322
2838	0.00383699
2850	0.00488907
2862	0.00556983
2874	0.00662191
2886	0.00717889
2898	0.00915928
2910	0.00854041
2922	0.00860229
2934	0.00915928
2946	0.00915928
2958	0.00767399
2970	0.00798342
2982	0.00841663
2994	0.0102732
3006	0.0154099
3018	0.0155955
3030	0.0273541
3042	0.0288393
3054	0.0402265
3066	0.15119
3078	0.236656
3090	0.0793391
3102	0.026859
3114	0.0423307
3126	0.0524802
3138	0.0119442
3150	0.00575549
3162	0.00495096
3174	0.00445586
3186	0.00501285
3198	0.00433209
3210	0.0033419
3222	0.00352756
3234	0.00315624
3246	0.00321812
3258	0.00303246
3270	0.00365133
3282	0.00266114
3294	0.00297058
3306	0.00315624
3318	0.00303246
3330	0.00259925
3342	0.00303246
3354	0.00303246
3366	0.0028468
3378	0.00290869
3390	0.00297058
3402	0.00309435
3414	0.00396077
3426	0.00290869
3438	0.00371322
3450	0.00297058
3462	0.00365133
3474	0.0028468
3486	0.00235171
3498	0.00297058
3510	0.00303246
3522	0.00396077
3534	0.00377511
3546	0.00315624
3558	0.00383699
3570	0.00457964
3582	0.00383699
3594	0.00420832
3606	0.00365133
3618	0.00377511
3630	0.00377511
3642	0.00278491
3654	0.00439398
3666	0.00365133
3678	0.00303246
3690	0.00408454
3702	0.00321812
3714	0.00290869
3726	0.00383699
3738	0.00433209
3750	0.00346567
3762	0.00433209
3774	0.00556983
3786	0.0061887
3798	0.00575549
3810	0.00600304
3822	0.0042702
3834	0.00457964
3846	0.00371322
3858	0.0042702
3870	0.00352756
3882	0.00495096
3894	0.00290869
3906	0.00352756
3918	0.00290869
3930	0.00266114
3942	0.00402265
3954	0.0033419
3966	0.00365133
