Infrared Spectrum: 3-Hexanone, 2-methyl-
Formula: C 7 H 14 O
CAS: 7379-12-6
Origin: Sadtler Research Labs Under US-EPA Contract
1/CM	ABSORBANCE
450	0.00491242
462	0.0056735
474	0.00214486
486	0.00242162
498	0.00179891
510	0.0056735
522	0.00428972
534	0.015014
546	0.00657296
558	0.00491242
570	0.00518918
582	0.00719566
594	0.00740322
606	0.00899457
618	0.00837187
630	0.00726485
642	0.00664214
654	0.00428972
666	0.00103783
678	0.00276756
690	0.00269837
702	0.00477404
714	0.00622701
726	0.00899457
738	0.00823349
750	0.00851025
762	0.00809511
774	0.00892538
786	0.0119005
798	0.0141837
810	0.0166745
822	0.0166745
834	0.0112778
846	0.00913295
858	0.00996322
870	0.0132843
882	0.0172281
894	0.0268453
906	0.0292669
918	0.0159827
930	0.0110702
942	0.00934052
954	0.0109319
966	0.0166054
978	0.0302356
990	0.0467718
1002	0.0572193
1014	0.100186
1026	0.138793
1038	0.0943046
1050	0.0570117
1062	0.0491242
1074	0.0462183
1086	0.0561815
1098	0.0839954
1110	0.102815
1122	0.104614
1134	0.0880776
1146	0.0639998
1158	0.0491934
1170	0.0458031
1182	0.0553512
1194	0.0462183
1206	0.0330723
1218	0.0288518
1230	0.0273988
1242	0.0220021
1254	0.0251848
1266	0.0364626
1278	0.0404064
1290	0.0405448
1302	0.0345253
1314	0.0281599
1326	0.033695
1338	0.0545901
1350	0.0940279
1362	0.126339
1374	0.120804
1386	0.119559
1398	0.0855176
1410	0.0500236
1422	0.0489166
1434	0.0516842
1446	0.0712647
1458	0.117414
1470	0.149102
1482	0.0997705
1494	0.0372237
1506	0.0188886
1518	0.0125924
1530	0.00809511
1542	0.00684971
1554	0.00588107
1566	0.00491242
1578	0.0050508
1590	0.00532755
1602	0.00532755
1614	0.00636539
1626	0.00740322
1638	0.00795674
1650	0.00961727
1662	0.0121773
1674	0.0206183
1686	0.0364626
1698	0.0819198
1710	0.225902
1722	0.441841
1734	0.413058
1746	0.167437
1758	0.0603328
1770	0.0447653
1782	0.0369469
1794	0.0289902
1806	0.0154983
1818	0.00837187
1830	0.00525836
1842	0.00415134
1854	0.00304432
1866	0.00262918
1878	0.0024908
1890	0.00283675
1902	0.00297513
1914	0.00255999
1926	0.00214486
1938	0.000899457
1950	0.00117621
1962	0.000968646
1974	0.000415134
1986	0
1998	0
2010	0
2022	0.000484323
2034	0.000899457
2046	0.00138378
2058	0.0012454
2070	0.00179891
2082	0.00235243
2094	0.00262918
2106	0.00159135
2118	0.00200648
2130	0.00179891
2142	0.0018681
2154	0.00110702
2166	0.00228324
2178	0.0012454
2190	0.00131459
2202	0.00166054
2214	0.00145297
2226	0.00117621
2238	0.0012454
2250	0.00159135
2262	0.00110702
2274	0.00103783
2286	0.00103783
2298	0.0012454
2310	0.00228324
2322	0.00283675
2334	0.00235243
2346	0.0018681
2358	0.00221405
2370	0.000138378
2382	0.00103783
2394	0.00242162
2406	0.00290594
2418	0.00242162
2430	0.00255999
2442	0.00221405
2454	0.00255999
2466	0.00255999
2478	0.00304432
2490	0.0024908
2502	0.00269837
2514	0.00228324
2526	0.00221405
2538	0.00207567
2550	0.00235243
2562	0.0018681
2574	0.0018681
2586	0.00242162
2598	0.00311351
2610	0.00339026
2622	0.00415134
2634	0.00408215
2646	0.00470485
2658	0.00664214
2670	0.00705728
2682	0.00774917
2694	0.00795674
2706	0.0075416
2718	0.00733403
2730	0.008787
2742	0.0119005
2754	0.0114854
2766	0.0107935
2778	0.0108627
2790	0.012454
2802	0.0154291
2814	0.021587
2826	0.0255307
2838	0.0301664
2850	0.0414442
2862	0.0679436
2874	0.148341
2886	0.248389
2898	0.250603
2910	0.235727
2922	0.241262
2934	0.293776
2946	0.35916
2958	0.392855
2970	0.636608
2982	0.633287
2994	0.261258
3006	0.0948581
3018	0.0464258
3030	0.0283675
3042	0.0199956
3054	0.0159135
3066	0.0143913
3078	0.0130075
3090	0.0119697
3102	0.0114162
3114	0.0109319
3126	0.0111394
3138	0.0105167
3150	0.0116238
3162	0.0101708
3174	0.00968646
3186	0.00975565
3198	0.0075416
3210	0.00684971
3222	0.00435891
3234	0.00422053
3246	0.00297513
3258	0.00262918
3270	0.00415134
3282	0.00553512
3294	0.00449729
3306	0.00449729
3318	0.00311351
3330	0.00408215
3342	0.00435891
3354	0.00463566
3366	0.00221405
3378	0.00269837
3390	0.0050508
3402	0.00477404
3414	0.00574269
3426	0.00947889
3438	0.01024
3450	0.00657296
3462	0.00290594
3474	0.00373621
3486	0.00235243
3498	0.00110702
3510	0.000830268
3522	0.00145297
3534	0.00235243
3546	0.00290594
3558	0.00449729
3570	0.00871781
3582	0.00871781
3594	0.0056735
3606	0.00608863
3618	0.00235243
3630	0.00103783
3642	0.00318269
3654	0.0024908
3666	0.00297513
3678	0.0024908
3690	0.00290594
3702	0.00269837
3714	0.00242162
3726	0.00498161
3738	0.00546593
3750	0.00657296
3762	0.00546593
3774	0.00484323
3786	0.00588107
3798	0.00532755
3810	0.0056735
3822	0.00636539
3834	0.00698809
3846	0.00595025
3858	0.00595025
3870	0.00498161
3882	0.0038054
3894	0.00470485
3906	0.00581188
3918	0.00449729
3930	0.00511999
3942	0.00428972
3954	0.0044281
3966	0.00733403
