Infrared Spectrum: Acetic acid, cyanocycloheptylidene-, ethyl ester
Formula: C 12 H 17 N O 2
CAS: 7402-61-1
Origin: Sadtler Research Labs Under US-EPA Contract
1/CM	ABSORBANCE
450	0.0157412
462	0.00798043
474	0.0058572
486	0.00871259
498	0.00314825
510	0.00644292
522	0.00541791
534	0.00087858
546	0.00329467
558	0.00453933
570	0.00102501
582	0.00366075
594	0.00073215
606	0.00161073
618	0.000951795
630	0.00205002
642	0.00226966
654	0.00336789
666	0.00307503
678	0.00336789
690	0.00556434
702	0.00388039
714	0.00373396
726	0.00593041
738	0.0141305
750	0.0148626
762	0.019768
774	0.0317021
786	0.0330932
798	0.0227699
810	0.0186698
822	0.0159609
834	0.0151555
846	0.0241609
858	0.0341914
870	0.021452
882	0.011568
894	0.0111287
906	0.015668
918	0.0183038
930	0.0132519
942	0.0128858
954	0.0226966
966	0.0205734
978	0.0189627
990	0.0297253
1002	0.0349968
1014	0.0552041
1026	0.126076
1038	0.160121
1050	0.0891027
1062	0.0524952
1074	0.0599631
1086	0.137571
1098	0.343305
1110	0.25391
1122	0.104917
1134	0.0563755
1146	0.0604024
1158	0.105356
1170	0.168687
1182	0.229163
1194	0.187943
1206	0.177327
1218	0.282537
1230	0.587111
1242	0.706452
1254	0.387747
1266	0.308967
1278	0.316728
1290	0.234801
1302	0.163343
1314	0.0975956
1326	0.0600363
1338	0.0491273
1350	0.0668453
1362	0.0612077
1374	0.077315
1386	0.0349236
1398	0.0316289
1410	0.0327271
1422	0.0388772
1434	0.04122
1446	0.0813419
1458	0.112239
1470	0.0907134
1482	0.0511773
1494	0.0213056
1506	0.0117144
1518	0.00885901
1530	0.00834651
1542	0.00988402
1554	0.013618
1566	0.0210127
1578	0.0399754
1590	0.10521
1602	0.182452
1614	0.0941545
1626	0.0330932
1638	0.0174252
1650	0.0128126
1662	0.0120073
1674	0.0149359
1686	0.0229895
1698	0.0339718
1710	0.0573273
1722	0.126808
1734	0.403488
1746	0.497569
1758	0.186625
1770	0.108505
1782	0.0493469
1794	0.0212324
1806	0.0112019
1818	0.00673578
1830	0.00417325
1842	0.00322146
1854	0.00212323
1866	0.0024161
1878	0.0024161
1890	0.00256252
1902	0.00219645
1914	0.00168394
1926	0.00168394
1938	0.00161073
1950	0.00219645
1962	0.00226966
1974	0.00139109
1986	0.00131787
1998	0.000805365
2010	0.00124465
2022	0.00117144
2034	0.00161073
2046	0.00153751
2058	0.00139109
2070	0.00183037
2082	0.0029286
2094	0.00336789
2106	0.00307503
2118	0.00234288
2130	0.0024161
2142	0.00190359
2154	0.00117144
2166	0.00124465
2178	0.00190359
2190	0.00183037
2202	0.00300181
2214	0.00856615
2226	0.0215252
2238	0.0101769
2250	0.00256252
2262	0.0024161
2274	0.00219645
2286	0.0019768
2298	0.0019768
2310	0.00270895
2322	0.0034411
2334	0.00417325
2346	0.00410004
2358	0.00285538
2370	0.00278217
2382	0.00314825
2394	0.00153751
2406	0.00117144
2418	0.00161073
2430	0.00131787
2442	0.00073215
2454	0.00087858
2466	0.000951795
2478	0.00102501
2490	0.00073215
2502	0.000805365
2514	0.00058572
2526	0.000366075
2538	0.00087858
2550	0.00073215
2562	0.00058572
2574	0.000366075
2586	0.000805365
2598	0.00087858
2610	0.00117144
2622	0.00205002
2634	0.00234288
2646	0.00278217
2658	0.00256252
2670	0.00410004
2682	0.00593041
2694	0.00644292
2706	0.00497862
2718	0.00351432
2730	0.00322146
2742	0.00270895
2754	0.00314825
2766	0.00410004
2778	0.00593041
2790	0.00761436
2802	0.0106162
2814	0.0131787
2826	0.0148626
2838	0.0186698
2850	0.0370468
2862	0.128932
2874	0.153678
2886	0.103233
2898	0.0886634
2910	0.127614
2922	0.224331
2934	0.47458
2946	0.581254
2958	0.222647
2970	0.133983
2982	0.130469
2994	0.138742
3006	0.0739471
3018	0.0420986
3030	0.0211591
3042	0.0124465
3054	0.00915188
3066	0.00680899
3078	0.00563755
3090	0.00475897
3102	0.00446611
3114	0.00402682
3126	0.00322146
3138	0.00322146
3150	0.00270895
3162	0.00234288
3174	0.00161073
3186	0.0019768
3198	0.00161073
3210	0.00139109
3222	0.00175716
3234	0.00139109
3246	0.00139109
3258	0.00117144
3270	0.00190359
3282	0.0014643
3294	0.00124465
3306	0.00117144
3318	0.00161073
3330	0.00153751
3342	0.00190359
3354	0.00139109
3366	0.000951795
3378	0.0014643
3390	0.00212323
3402	0.00190359
3414	0.00234288
3426	0.00190359
3438	0.00248931
3450	0.00314825
3462	0.00519826
3474	0.00336789
3486	0.00190359
3498	0.000805365
3510	0.00109822
3522	0.00058572
3534	0.0014643
3546	0.000512505
3558	0.00102501
3570	0.00102501
3582	0.00161073
3594	0.000951795
3606	0.000658935
3618	0.00139109
3630	0.00117144
3642	0.00014643
3654	0.00109822
3666	0.000951795
3678	0.00124465
3690	0.0014643
3702	0.00073215
3714	0.00175716
3726	0.00234288
3738	0.00183037
3750	0.00219645
3762	0.0014643
3774	0.00139109
3786	0.00263574
3798	0.0014643
3810	0.00168394
3822	0.0019768
3834	0.00124465
3846	0.00329467
3858	0.00190359
3870	0.00073215
3882	0.00190359
3894	0.00139109
3906	0.000951795
3918	0.00161073
3930	0.00175716
3942	0.00087858
3954	0.00234288
3966	0.00219645
