Infrared Spectrum: Acetamide, 2-chloro-N,N-diisopropyl-,
Formula: C 8 H 16 Cl N O
CAS: 7403-66-9
Origin: Sadtler Research Labs Under US-EPA Contract
1/CM	ABSORBANCE
450	0.0491944
462	0.0153382
474	0.0662161
486	0.0480721
498	0.0529354
510	0.0630362
522	0.0505038
534	0.0353526
546	0.032921
558	0.0418994
570	0.051252
582	0.0995111
594	0.111669
606	0.073511
618	0.101195
630	0.0860435
642	0.0336692
654	0.0235684
666	0.0334821
678	0.0437699
690	0.103065
702	0.18649
714	0.104562
726	0.058734
738	0.0271224
750	0.021885
762	0.0323598
774	0.0497556
786	0.0783744
798	0.0626621
810	0.0282447
822	0.018331
834	0.0155252
846	0.0142159
858	0.0200145
870	0.01459
882	0.0203886
894	0.0129065
906	0.0213238
918	0.0336692
930	0.0303023
942	0.0228202
954	0.0271224
966	0.0280576
978	0.0187051
990	0.0160864
1002	0.0222591
1014	0.0188922
1026	0.0370361
1038	0.111482
1050	0.122705
1062	0.0443311
1074	0.0319857
1086	0.05518
1098	0.0998852
1110	0.23026
1122	0.312375
1134	0.272159
1146	0.225209
1158	0.182936
1170	0.158245
1182	0.12308
1194	0.153569
1206	0.30639
1218	0.307699
1230	0.138044
1242	0.105684
1254	0.187986
1266	0.158432
1278	0.0780003
1290	0.0858564
1302	0.150389
1314	0.351469
1326	0.756434
1338	0.755499
1350	0.264864
1362	0.225209
1374	0.434145
1386	0.360634
1398	0.14908
1410	0.109425
1422	0.21567
1434	0.419742
1446	0.548995
1458	0.432836
1470	0.256821
1482	0.187425
1494	0.0753816
1506	0.0570506
1518	0.0452663
1530	0.0372231
1542	0.040403
1554	0.0346044
1566	0.0347915
1578	0.0327339
1590	0.0297411
1602	0.0301152
1614	0.0484462
1626	0.0862305
1638	0.13131
1650	0.245598
1662	0.79665
1674	1.77942
1686	0.937874
1698	0.251022
1710	0.0972665
1722	0.0534966
1734	0.0454534
1746	0.0323598
1758	0.0269353
1770	0.0276835
1782	0.0222591
1794	0.0200145
1806	0.0151511
1818	0.0138418
1830	0.0157123
1842	0.01459
1854	0.00841729
1866	0.00897845
1878	0.00673384
1890	0.00804319
1902	0.00654679
1914	0.00523743
1926	0.00392807
1938	0.00317987
1950	0.00317987
1962	0.00392807
1974	0.00299282
1986	0.00280576
1998	0.00317987
2010	0.00317987
2022	0.00392807
2034	0.00392807
2046	0.00374102
2058	0.00336692
2070	0.00392807
2082	0.00374102
2094	0.00299282
2106	0.00205756
2118	0.00168346
2130	0.00168346
2142	0.00205756
2154	0.00224461
2166	0.00187051
2178	0.00261871
2190	0.00261871
2202	0.00187051
2214	0.00224461
2226	0.00374102
2238	0.00411512
2250	0.00448922
2262	0.00411512
2274	0.00374102
2286	0.00467628
2298	0.00579858
2310	0.00598563
2322	0.00486333
2334	0.00467628
2346	0.00523743
2358	0.00542448
2370	0.00598563
2382	0.00505038
2394	0.00355397
2406	0.00299282
2418	0.00299282
2430	0.00336692
2442	0.00205756
2454	0.00280576
2466	0.00280576
2478	0.00299282
2490	0.00448922
2502	0.00505038
2514	0.00505038
2526	0.00374102
2538	0.00392807
2550	0.00411512
2562	0.00392807
2574	0.00411512
2586	0.00505038
2598	0.00635973
2610	0.00729499
2622	0.00804319
2634	0.00692089
2646	0.00673384
2658	0.00692089
2670	0.00673384
2682	0.00710794
2694	0.00897845
2706	0.0091655
2718	0.0102878
2730	0.0140288
2742	0.0155252
2754	0.0153382
2766	0.0166475
2778	0.0162734
2790	0.0166475
2802	0.0194533
2814	0.0239425
2826	0.0306764
2838	0.0347915
2850	0.0426476
2862	0.0637844
2874	0.121957
2886	0.182936
2898	0.173396
2910	0.170216
2922	0.209123
2934	0.343987
2946	0.418059
2958	0.350534
2970	0.682175
2982	0.733427
2994	0.354275
3006	0.281886
3018	0.216605
3030	0.0837988
3042	0.0491944
3054	0.0361008
3066	0.0306764
3078	0.0260001
3090	0.0246907
3102	0.0254389
3114	0.0252519
3126	0.0216979
3138	0.0187051
3150	0.0158993
3162	0.0164605
3174	0.0149641
3186	0.0149641
3198	0.0140288
3210	0.010849
3222	0.00804319
3234	0.00673384
3246	0.00635973
3258	0.00523743
3270	0.00467628
3282	0.00598563
3294	0.00654679
3306	0.0091655
3318	0.0138418
3330	0.0190792
3342	0.01459
3354	0.00654679
3366	0.00486333
3378	0.00467628
3390	0.00355397
3402	0.00355397
3414	0.00299282
3426	0.00374102
3438	0.00336692
3450	0.00411512
3462	0.00299282
3474	0.00392807
3486	0.00505038
3498	0.00355397
3510	0.00317987
3522	0.00392807
3534	0.00336692
3546	0.00205756
3558	0.00448922
3570	0.00205756
3582	0.00392807
3594	0.00336692
3606	0.00336692
3618	0.00280576
3630	0.00280576
3642	0.00205756
3654	0.00261871
3666	0.00280576
3678	0.00448922
3690	0.00130936
3702	0.00130936
3714	0.00261871
3726	0.00149641
3738	0.00505038
3750	0.00355397
3762	0.00205756
3774	0.00392807
3786	0.00299282
3798	0.00224461
3810	0.00411512
3822	0.00617268
3834	0.00505038
3846	0.00205756
3858	0.00261871
3870	0.00411512
3882	0.00336692
3894	0.00392807
3906	0.00523743
3918	0.00542448
3930	0.00336692
3942	0.00168346
3954	0.00467628
3966	0.00149641
