Infrared Spectrum: Propionic acid, 3-dodecyloxy-,
Formula: C 16 H 32 O 3
CAS: 7420-11-3
Origin: Sadtler Research Labs Under US-EPA Contract
1/CM	ABSORBANCE
450	0.0343474
462	0.0392984
474	0.0208869
486	0
498	0.0250643
510	0.0146209
522	0.0208869
534	0.0239813
546	0.00750382
558	0.00781326
570	0.0162454
582	0.0166322
594	0.0213511
606	0.0179473
618	0.0112171
630	0.0166322
642	0.0164775
654	0.0184114
666	0.0164775
678	0.0130737
690	0.0229756
702	0.0242907
714	0.0246775
726	0.0314851
738	0.0334964
750	0.00201133
762	0.0160133
774	0.0215058
786	0.0184888
798	0.0145435
810	0.0211964
822	0.0237492
834	0.0283134
846	0.0314851
858	0.0243681
870	0.0215058
882	0.0193397
894	0.0190303
906	0.0170963
918	0.0179473
930	0.0173284
942	0.0206549
954	0.0226662
966	0.0269983
978	0.0302474
990	0.0341927
1002	0.045255
1014	0.0539192
1026	0.0594891
1038	0.0549249
1050	0.062274
1062	0.0867194
1074	0.114182
1086	0.118282
1098	0.15495
1110	0.275475
1122	0.323593
1134	0.209333
1146	0.124393
1158	0.125322
1170	0.18396
1182	0.233469
1194	0.214594
1206	0.166786
1218	0.125399
1230	0.122459
1242	0.127101
1254	0.133676
1266	0.122382
1278	0.088344
1290	0.0751156
1302	0.072408
1314	0.0719439
1326	0.0716344
1338	0.0703193
1350	0.0897364
1362	0.112016
1374	0.107916
1386	0.0649042
1398	0.0375965
1410	0.0363587
1422	0.0437078
1434	0.0708608
1446	0.0953063
1458	0.0843987
1470	0.0805307
1482	0.0449456
1494	0.024987
1506	0.0186435
1518	0.0152397
1530	0.0128416
1542	0.0127642
1554	0.0118359
1566	0.0109076
1578	0.0106755
1590	0.00912836
1602	0.00866421
1614	0.0094378
1626	0.0081227
1638	0.00850949
1650	0.00866421
1662	0.00750382
1674	0.00959252
1686	0.0116039
1698	0.0146209
1710	0.0202681
1722	0.0376738
1734	0.0749609
1746	0.145667
1758	0.291489
1770	0.264722
1782	0.106523
1794	0.0447909
1806	0.018953
1818	0.00997931
1830	0.00750382
1842	0.00564721
1854	0.00618872
1866	0.00502834
1878	0.0047189
1890	0.00456418
1902	0.00502834
1914	0.00495098
1926	0.00495098
1938	0.00510569
1950	0.00479626
1962	0.00541513
1974	0.00502834
1986	0.00526041
1998	0.00549249
2010	0.00587928
2022	0.00634344
2034	0.006034
2046	0.00680759
2058	0.00634344
2070	0.00518305
2082	0.00533777
2094	0.00456418
2106	0.00379059
2118	0.00371323
2130	0.00332644
2142	0.00309436
2154	0.00317172
2166	0.00255285
2178	0.003017
2190	0.00255285
2202	0.00232077
2214	0.00193398
2226	0.00162454
2238	0.00146982
2250	0.00139246
2262	0.0017019
2274	0.00201133
2286	0.00255285
2298	0.0034038
2310	0.00440946
2322	0.00355851
2334	0.00371323
2346	0.00324908
2358	0.00456418
2370	0.00309436
2382	0.00293964
2394	0.00232077
2406	0.00247549
2418	0.00247549
2430	0.00247549
2442	0.00247549
2454	0.00239813
2466	0.00162454
2478	0.00201133
2490	0.00201133
2502	0.00146982
2514	0.00239813
2526	0.00255285
2538	0.00278492
2550	0.00309436
2562	0.00293964
2574	0.00317172
2586	0.00386795
2598	0.00464154
2610	0.00502834
2622	0.00564721
2634	0.00595664
2646	0.0064208
2658	0.0073491
2670	0.00804534
2682	0.00920572
2694	0.00997931
2706	0.0102887
2718	0.0116812
2730	0.0127642
2742	0.0144661
2754	0.0143888
2766	0.0148529
2778	0.0172511
2790	0.0226662
2802	0.0294738
2814	0.0333417
2826	0.0427795
2838	0.066374
2850	0.146827
2862	0.361885
2874	0.333263
2886	0.227822
2898	0.193243
2910	0.276868
2922	0.455412
2934	0.77359
2946	0.532617
2958	0.320576
2970	0.264336
2982	0.117663
2994	0.0710156
3006	0.0513664
3018	0.0376738
3030	0.031253
3042	0.0222794
3054	0.0160907
3066	0.0125322
3078	0.010134
3090	0.00990195
3102	0.00874157
3114	0.0081227
3126	0.00696231
3138	0.00556985
3150	0.00526041
3162	0.00526041
3174	0.0043321
3186	0.00394531
3198	0.00425474
3210	0.00348116
3222	0.00239813
3234	0.00255285
3246	0.00193398
3258	0.00185662
3270	0.00232077
3282	0.00139246
3294	0.00239813
3306	0.00146982
3318	0.00108303
3330	0.00162454
3342	0.00162454
3354	0.00201133
3366	0.00154718
3378	0.00208869
3390	0.00154718
3402	0.00162454
3414	0.00185662
3426	0.00255285
3438	0.00224341
3450	0.00247549
3462	0.00247549
3474	0.00278492
3486	0.00332644
3498	0.0043321
3510	0.00425474
3522	0.0034038
3534	0.00270756
3546	0.00193398
3558	0.0034038
3570	0.00309436
3582	0.00293964
3594	0.00201133
3606	0.00270756
3618	0.00278492
3630	0.00255285
3642	0.00317172
3654	0.00232077
3666	0.00293964
3678	0.003017
3690	0.00247549
3702	0.00293964
3714	0.00162454
3726	0.00348116
3738	0.00239813
3750	0.00224341
3762	0.00123774
3774	0.00247549
3786	0.0034038
3798	0.00208869
3810	0.00201133
3822	0.00123774
3834	0.00108303
3846	0.00371323
3858	0.00146982
3870	0.00270756
3882	0.00216605
3894	0.003017
3906	0.00293964
3918	0.00293964
3930	0.00263021
3942	0.00595664
3954	0.00549249
3966	0.00626608
