Infrared Spectrum: Cyclohexane,1,2-dibromo-,trans-
Formula: C 6 H 10 Br 2
CAS: 7429-37-0
Origin: Sadtler Research Labs Under US-EPA Contract
1/CM	ABSORBANCE
450	0
462	0.0181939
474	0.0233224
486	0.0274741
498	0.0227119
510	0.0144086
522	0.0227119
534	0.113315
546	0.425054
558	0.126259
570	0.00854749
582	0.0140423
594	0.0122107
606	0.0157518
618	0.013676
630	0.0137981
642	0.0274741
654	0.0760727
666	0.169851
678	0.028573
690	0.10489
702	0.121252
714	0.0384637
726	0.0174613
738	0.0124549
750	0.0131876
762	0.0144086
774	0.0179497
786	0.0185603
798	0.0345563
810	0.0837654
822	0.071921
834	0.0357774
846	0.0394406
858	0.0792474
870	0.0440806
882	0.0150192
894	0.0362658
906	0.12748
918	0.0297941
930	0.0211245
942	0.0235667
954	0.0244214
966	0.0462786
978	0.0783927
990	0.091336
1002	0.243603
1014	0.0394406
1026	0.0178276
1038	0.0153855
1050	0.0146528
1062	0.0105012
1074	0.00708221
1086	0.0137981
1098	0.0148971
1110	0.0201477
1122	0.0317478
1134	0.0295499
1146	0.0128212
1158	0.0809569
1170	0.142621
1182	0.457169
1194	0.136638
1206	0.0902371
1218	0.0417606
1230	0.0400511
1242	0.0462786
1254	0.083277
1266	0.102081
1278	0.0716768
1290	0.0328468
1302	0.0206361
1314	0.0234445
1326	0.0498197
1338	0.0608093
1350	0.0571461
1362	0.0518955
1374	0.0169729
1386	0.0156297
1398	0.015996
1410	0.0189266
1422	0.0295499
1434	0.148604
1446	0.240184
1458	0.204285
1470	0.110263
1482	0.0348005
1494	0.0174613
1506	0.0134318
1518	0.0123328
1530	0.0114781
1542	0.012577
1554	0.00989067
1566	0.0087917
1578	0.00842538
1590	0.00671588
1602	0.00793695
1614	0.011356
1626	0.0118444
1638	0.0137981
1650	0.0120886
1662	0.0123328
1674	0.0123328
1686	0.0130654
1698	0.0112338
1710	0.0108675
1722	0.0126991
1734	0.0129433
1746	0.0124549
1758	0.0122107
1770	0.0134318
1782	0.0129433
1794	0.0122107
1806	0.0131876
1818	0.0130654
1830	0.0123328
1842	0.0120886
1854	0.0122107
1866	0.012577
1878	0.0126991
1890	0.0130654
1902	0.0128212
1914	0.0134318
1926	0.0137981
1938	0.012577
1950	0.0120886
1962	0.0129433
1974	0.0126991
1986	0.0122107
1998	0.0120886
2010	0.0119665
2022	0.0128212
2034	0.0135539
2046	0.0129433
2058	0.0131876
2070	0.0153855
2082	0.0129433
2094	0.0107454
2106	0.0114781
2118	0.0130654
2130	0.0131876
2142	0.0123328
2154	0.0142865
2166	0.0172171
2178	0.0144086
2190	0.0134318
2202	0.013676
2214	0.0133097
2226	0.0118444
2238	0.0123328
2250	0.012577
2262	0.0123328
2274	0.0101349
2286	0.00891381
2298	0.00915802
2310	0.00744853
2322	0.00647167
2334	0.00793695
2346	0.00720431
2358	0.00647167
2370	0.0116002
2382	0.0141644
2394	0.0141644
2406	0.012577
2418	0.0116002
2430	0.0109896
2442	0.0117223
2454	0.0120886
2466	0.012577
2478	0.0142865
2490	0.0147749
2502	0.0133097
2514	0.0122107
2526	0.0126991
2538	0.0137981
2550	0.0129433
2562	0.0128212
2574	0.013676
2586	0.0131876
2598	0.013676
2610	0.0124549
2622	0.0118444
2634	0.0128212
2646	0.0144086
2658	0.0134318
2670	0.018316
2682	0.0181939
2694	0.0155076
2706	0.015996
2718	0.0155076
2730	0.0135539
2742	0.0131876
2754	0.0116002
2766	0.0123328
2778	0.0168508
2790	0.0207582
2802	0.019415
2814	0.0203919
2826	0.0208803
2838	0.0236888
2850	0.0601988
2862	0.137859
2874	0.298796
2886	0.152512
2898	0.0886497
2910	0.110385
2922	0.156541
2934	0.283655
2946	0.892602
2958	1.13901
2970	0.391231
2982	0.0666704
2994	0.0600766
3006	0.0428596
3018	0.0161181
3030	0.0155076
3042	0.0153855
3054	0.0135539
3066	0.0120886
3078	0.0137981
3090	0.0133097
3102	0.00976856
3114	0.0103791
3126	0.0134318
3138	0.00915802
3150	0.00989067
3162	0.0086696
3174	0.0117223
3186	0.0105012
3198	0.00952435
3210	0.00854749
3222	0.0103791
3234	0.0100128
3246	0.00964645
3258	0.0106233
3270	0.0123328
3282	0.0122107
3294	0.0087917
3306	0.0108675
3318	0.0119665
3330	0.00891381
3342	0.0069601
3354	0.00854749
3366	0.0086696
3378	0.00818117
3390	0.00805906
3402	0.00976856
3414	0.011356
3426	0.0100128
3438	0.00818117
3450	0.0111117
3462	0.00891381
3474	0.0086696
3486	0.00683799
3498	0.0100128
3510	0.0109896
3522	0.00940224
3534	0.00818117
3546	0.0100128
3558	0.0101349
3570	0.00976856
3582	0.00818117
3594	0.00928013
3606	0.00952435
3618	0.00989067
3630	0.00952435
3642	0.00989067
3654	0.0120886
3666	0.0108675
3678	0.0105012
3690	0.0069601
3702	0.0108675
3714	0.00915802
3726	0.00732642
3738	0.00964645
3750	0.0100128
3762	0.010257
3774	0.00805906
3786	0.00854749
3798	0.0108675
3810	0.0118444
3822	0.0069601
3834	0.00805906
3846	0.0123328
3858	0.00805906
3870	0.00732642
3882	0.00769274
3894	0.00647167
3906	0.0100128
3918	0.00634956
3930	0.00744853
3942	0.0119665
3954	0.0108675
3966	0.0116002
