Infrared Spectrum: Propionic acid, 3-decyloxy-2-ethoxy-, methyl ester
Formula: C 16 H 32 O 4
CAS: 7439-02-3
Origin: Sadtler Research Labs Under US-EPA Contract
1/CM	ABSORBANCE
450	0.035146
462	0.0220481
474	0.0195013
486	0
498	0.0245949
510	0.0175366
522	0.0181187
534	0.0280149
546	0.0146987
558	0.0143349
570	0.0233579
582	0.0221209
594	0.0233579
606	0.0247404
618	0.0136072
630	0.0207383
642	0.0161541
654	0.0154264
666	0.0159358
678	0.0141166
690	0.0200107
702	0.0213204
714	0.0233579
726	0.0257592
738	0.0175366
750	0.0145532
762	0.0187736
774	0.0179004
786	0.0184098
798	0.0186281
810	0.0225575
822	0.0272872
834	0.0312894
846	0.0350732
858	0.031726
870	0.028597
882	0.0264868
894	0.0269962
906	0.0272145
918	0.0277238
930	0.0272145
942	0.030489
954	0.0338362
966	0.0376928
978	0.0463519
990	0.0561026
1002	0.0698554
1014	0.0769864
1026	0.0844086
1038	0.0877558
1050	0.0991801
1062	0.124139
1074	0.152372
1086	0.169254
1098	0.239036
1110	0.376928
1122	0.47749
1134	0.411856
1146	0.29623
1158	0.217934
1170	0.226666
1182	0.254244
1194	0.230159
1206	0.176749
1218	0.137018
1230	0.139274
1242	0.147278
1254	0.152736
1266	0.139856
1278	0.107839
1290	0.0981613
1302	0.0936498
1314	0.0865188
1326	0.0888473
1338	0.0892111
1350	0.120792
1362	0.137091
1374	0.100926
1386	0.0776413
1398	0.0587949
1410	0.0485349
1422	0.0513728
1434	0.0787328
1446	0.103037
1458	0.0978703
1470	0.0871737
1482	0.0537013
1494	0.0275055
1506	0.0184826
1518	0.0149898
1530	0.0129523
1542	0.011206
1554	0.0108421
1566	0.0105511
1578	0.0104783
1590	0.00880469
1602	0.00836809
1614	0.00902298
1626	0.00800426
1638	0.00807703
1650	0.0074949
1662	0.00829532
1674	0.00967788
1686	0.0121519
1698	0.0171728
1710	0.0277238
1722	0.0507179
1734	0.0958328
1746	0.187664
1758	0.317333
1770	0.290118
1782	0.152154
1794	0.077423
1806	0.0359464
1818	0.0175366
1830	0.0107694
1842	0.0072766
1854	0.00654894
1866	0.00640341
1878	0.00560298
1890	0.00560298
1902	0.00553022
1914	0.00611234
1926	0.00618511
1938	0.00647617
1950	0.00676724
1962	0.0074949
1974	0.0072766
1986	0.00691277
1998	0.0074949
2010	0.00734937
2022	0.00756766
2034	0.00742213
2046	0.00764043
2058	0.00713107
2070	0.00640341
2082	0.00625788
2094	0.00611234
2106	0.00523915
2118	0.00494809
2130	0.00458426
2142	0.00443873
2154	0.00422043
2166	0.00400213
2178	0.00422043
2190	0.00349277
2202	0.00342
2214	0.00298341
2226	0.00276511
2238	0.00232851
2250	0.00225575
2262	0.00269234
2274	0.00276511
2286	0.00291064
2298	0.00342
2310	0.00487532
2322	0.0040749
2334	0.00465702
2346	0.00487532
2358	0.00516639
2370	0.00312894
2382	0.00283787
2394	0.00152809
2406	0.00160085
2418	0.00145532
2430	0.00123702
2442	0.00116426
2454	0.00123702
2466	0.000945958
2478	0.000873192
2490	0.00130979
2502	0.000945958
2514	0.00160085
2526	0.00189192
2538	0.00218298
2550	0.00225575
2562	0.00261958
2574	0.00276511
2586	0.00371107
2598	0.00465702
2610	0.00436596
2622	0.00545745
2634	0.00574851
2646	0.00633064
2658	0.00720383
2670	0.00851362
2682	0.0100417
2694	0.0121519
2706	0.0137528
2718	0.0154992
2730	0.0173183
2742	0.0197196
2754	0.0199379
2766	0.0211021
2778	0.0247404
2790	0.0309983
2802	0.0386387
2814	0.0453332
2826	0.0588677
2838	0.0924856
2850	0.194285
2862	0.402396
2874	0.391627
2886	0.294993
2898	0.258901
2910	0.329557
2922	0.488042
2934	0.72766
2946	0.545672
2958	0.359755
2970	0.297031
2982	0.131124
2994	0.0747307
3006	0.0518822
3018	0.03762
3030	0.0301979
3042	0.0206655
3054	0.0152081
3066	0.0109877
3078	0.00945958
3090	0.00873192
3102	0.0070583
3114	0.00662171
3126	0.00611234
3138	0.00443873
3150	0.00451149
3162	0.0040749
3174	0.00356553
3186	0.0032017
3198	0.00312894
3210	0.00269234
3222	0.00225575
3234	0.00218298
3246	0.00152809
3258	0.00181915
3270	0.00152809
3282	0.00174638
3294	0.00196468
3306	0.00145532
3318	0.00130979
3330	0.00181915
3342	0.00116426
3354	0.00225575
3366	0.00196468
3378	0.00196468
3390	0.00254681
3402	0.00232851
3414	0.00232851
3426	0.00240128
3438	0.00269234
3450	0.00225575
3462	0.00189192
3474	0.00160085
3486	0.00269234
3498	0.00298341
3510	0.00392936
3522	0.00327447
3534	0.00247404
3546	0.00232851
3558	0.00523915
3570	0.0132434
3582	0.0159358
3594	0.00422043
3606	0.00261958
3618	0.00181915
3630	0.00305617
3642	0.00232851
3654	0.00298341
3666	0.00254681
3678	0.00305617
3690	0.00174638
3702	0.00349277
3714	0.00225575
3726	0.00429319
3738	0.0038566
3750	0.000873192
3762	0.000873192
3774	0.00196468
3786	0.00225575
3798	0.00211021
3810	0.00218298
3822	0.00261958
3834	0.000873192
3846	0.00072766
3858	0.000800426
3870	0.00240128
3882	0.00123702
3894	0.00283787
3906	0.00211021
3918	0.00072766
3930	0.00298341
3942	0.00196468
3954	0.00261958
3966	0.00283787
