Infrared Spectrum: Cyclohexanol, 2-methyl-, trans-
Formula: C 7 H 14 O
CAS: 7443-52-9
Origin: Sadtler Research Labs Under US-EPA Contract
1/CM	ABSORBANCE
450	0.0574352
462	0.0342126
474	0.0326836
486	0.0360284
498	0.0343082
510	0.0382264
522	0.0396599
534	0.0533258
546	0.0363151
558	0.0440559
570	0.0412845
582	0.0331614
594	0.0308678
606	0.0301989
618	0.0295299
630	0.0362195
642	0.0298166
654	0.0308678
666	0.0302944
678	0.0288609
690	0.0282875
702	0.0284787
714	0.0279053
726	0.0274274
738	0.027523
750	0.028192
762	0.0300077
774	0.0343082
786	0.0301989
798	0.0290521
810	0.0273319
822	0.0321102
834	0.0451072
846	0.0482608
858	0.04052
870	0.034786
882	0.0309634
894	0.034786
906	0.0390865
918	0.0551416
930	0.0638381
942	0.0450116
954	0.036984
966	0.0496943
978	0.0745415
990	0.0703366
1002	0.0552371
1014	0.0765484
1026	0.145451
1038	0.243693
1050	0.274179
1062	0.209863
1074	0.118884
1086	0.0874429
1098	0.0783641
1110	0.0527524
1122	0.0487387
1134	0.0548549
1146	0.0505544
1158	0.0438648
1170	0.0453938
1182	0.052179
1194	0.0611622
1206	0.0617356
1218	0.0644115
1230	0.0710055
1242	0.0675652
1254	0.0650804
1266	0.0648893
1278	0.0560972
1290	0.0466362
1302	0.0445338
1314	0.0462539
1326	0.0466362
1338	0.052848
1350	0.0583908
1362	0.0725346
1374	0.0855316
1386	0.078173
1398	0.0565751
1410	0.0396599
1422	0.0350727
1434	0.0448205
1446	0.0899276
1458	0.141055
1470	0.102256
1482	0.0463495
1494	0.0255161
1506	0.0219802
1518	0.0189221
1530	0.0159595
1542	0.0192088
1554	0.017393
1566	0.0168196
1578	0.0185398
1590	0.0161507
1602	0.0153861
1614	0.0172019
1626	0.0147172
1638	0.0163418
1650	0.0142393
1662	0.0140482
1674	0.0143349
1686	0.0162462
1698	0.0150039
1710	0.0139526
1722	0.0140482
1734	0.0144305
1746	0.0132837
1758	0.0116591
1770	0.0131881
1782	0.0119457
1794	0.0125191
1806	0.0117546
1818	0.0121369
1830	0.0118502
1842	0.0104167
1854	0.0110857
1866	0.010799
1878	0.010799
1890	0.0103211
1902	0.0105123
1914	0.0095566
1926	0.00946103
1938	0.00993886
1950	0.00965217
1962	0.00965217
1974	0.01013
1986	0.00936547
1998	0.00965217
2010	0.00936547
2022	0.0095566
2034	0.00917434
2046	0.00879207
2058	0.00869651
2070	0.0089832
2082	0.00936547
2094	0.00946103
2106	0.00879207
2118	0.00888764
2130	0.00850537
2142	0.00812311
2154	0.00821868
2166	0.00850537
2178	0.00774085
2190	0.00783641
2202	0.00774085
2214	0.00764528
2226	0.00726302
2238	0.00697632
2250	0.00649849
2262	0.00621179
2274	0.00649849
2286	0.00735858
2298	0.00812311
2310	0.00946103
2322	0.0106078
2334	0.00831424
2346	0.00831424
2358	0.01013
2370	0.00573396
2382	0.00745415
2394	0.00879207
2406	0.00888764
2418	0.00869651
2430	0.0092699
2442	0.0089832
2454	0.00821868
2466	0.00850537
2478	0.00802754
2490	0.00860094
2502	0.00860094
2514	0.0095566
2526	0.0092699
2538	0.00936547
2550	0.00946103
2562	0.0092699
2574	0.0095566
2586	0.0127103
2598	0.0132837
2610	0.0142393
2622	0.0149083
2634	0.014526
2646	0.0152906
2658	0.0191132
2670	0.0218846
2682	0.0187309
2694	0.0168196
2706	0.0161507
2718	0.0160551
2730	0.0164374
2742	0.0186354
2754	0.0190176
2766	0.0186354
2778	0.0215979
2790	0.0251339
2802	0.027523
2814	0.0308678
2826	0.0411889
2838	0.0741592
2850	0.173166
2862	0.33257
2874	0.362864
2886	0.267203
2898	0.20604
2910	0.277619
2922	0.516056
2934	0.95394
2946	0.810017
2958	0.446962
2970	0.193139
2982	0.112194
2994	0.0578174
3006	0.0261851
3018	0.0148127
3030	0.0137615
3042	0.0144305
3054	0.0159595
3066	0.0148127
3078	0.0133792
3090	0.0133792
3102	0.0126147
3114	0.0135704
3126	0.0132837
3138	0.0128058
3150	0.0118502
3162	0.012997
3174	0.0109901
3186	0.0109901
3198	0.01013
3210	0.0107034
3222	0.0098433
3234	0.00946103
3246	0.0103211
3258	0.0112768
3270	0.0108945
3282	0.0104167
3294	0.0092699
3306	0.00936547
3318	0.0102256
3330	0.00993886
3342	0.00917434
3354	0.00821868
3366	0.0089832
3378	0.00974773
3390	0.00993886
3402	0.0095566
3414	0.01013
3426	0.00965217
3438	0.00936547
3450	0.0118502
3462	0.01013
3474	0.0125191
3486	0.01013
3498	0.0102256
3510	0.0110857
3522	0.00993886
3534	0.0105123
3546	0.00840981
3558	0.00946103
3570	0.00831424
3582	0.00946103
3594	0.0126147
3606	0.0128058
3618	0.0149083
3630	0.0237004
3642	0.0341171
3654	0.0500766
3666	0.0439604
3678	0.0240826
3690	0.0129014
3702	0.0127103
3714	0.0106078
3726	0.0098433
3738	0.00850537
3750	0.00821868
3762	0.00821868
3774	0.0135704
3786	0.0125191
3798	0.00630736
3810	0.0105123
3822	0.0150994
3834	0.0118502
3846	0.0135704
3858	0.0143349
3870	0.00840981
3882	0.0105123
3894	0.0121369
3906	0.0154817
3918	0.0106078
3930	0.0095566
3942	0.0138571
3954	0.0172974
3966	0.0112768
