Infrared Spectrum: Propionic acid, 3-dodecyloxy-2-ethoxy-, methyl ester
Formula: C 18 H 36 O 4
CAS: 7448-04-6
Origin: Sadtler Research Labs Under US-EPA Contract
1/CM	ABSORBANCE
450	0.000266242
462	0
474	0.0103834
486	0.030751
498	0.0246274
510	0.0460599
522	0.152424
534	0.120475
546	0.0236955
558	0.0427318
570	0.0135783
582	0.0158414
594	0.00559108
606	0.0161076
618	0.0129127
630	0.0113153
642	0.0107828
654	0.0167732
666	0.0238287
678	0.0187701
690	0.068158
702	0.0400694
714	0.0668267
726	0.0380726
738	0.0370076
750	0.0334134
762	0.0320822
774	0.0441962
786	0.0356764
798	0.0316828
810	0.0398032
822	0.0509853
834	0.0515178
846	0.0612357
858	0.0545796
870	0.0515178
882	0.0544465
894	0.0529822
906	0.0644306
918	0.0935841
930	0.123004
942	0.120741
954	0.11688
966	0.118744
978	0.100773
990	0.101838
1002	0.117146
1014	0.124601
1026	0.141774
1038	0.158547
1050	0.227637
1062	0.244943
1074	0.250001
1086	0.277158
1098	0.398831
1110	0.604769
1122	0.705142
1134	0.594252
1146	0.435572
1158	0.351839
1170	0.390444
1182	0.474044
1194	0.493346
1206	0.401759
1218	0.376067
1230	0.36595
1242	0.32628
1254	0.259187
1266	0.218718
1278	0.168398
1290	0.149362
1302	0.139111
1314	0.124335
1326	0.126465
1338	0.127663
1350	0.17572
1362	0.184639
1374	0.132189
1386	0.0997076
1398	0.0745478
1410	0.0648299
1422	0.0745478
1434	0.142839
1446	0.149495
1458	0.154154
1470	0.130059
1482	0.0702879
1494	0.0306178
1506	0.0171726
1518	0.00971783
1530	0.00732165
1542	0.00732165
1554	0.00612357
1566	0.00625669
1578	0.00599044
1590	0.00652293
1602	0.00638981
1614	0.00599044
1626	0.00412675
1638	0.0050586
1650	0.00399363
1662	0.00705541
1674	0.00798726
1686	0.0146433
1698	0.024228
1710	0.0406019
1722	0.078142
1734	0.155219
1746	0.297659
1758	0.452079
1770	0.384853
1782	0.190496
1794	0.0861293
1806	0.0368745
1818	0.0169064
1830	0.00798726
1842	0.00545796
1854	0.00332802
1866	0.00306178
1878	0.00372739
1890	0.00386051
1902	0.00332802
1914	0.00399363
1926	0.00425987
1938	0.00532484
1950	0.00692229
1962	0.00705541
1974	0.00692229
1986	0.00638981
1998	0.00705541
2010	0.0075879
2022	0.0082535
2034	0.00812038
2046	0.00785414
2058	0.00772102
2070	0.0075879
2082	0.00665605
2094	0.00599044
2106	0.00532484
2118	0.00452611
2130	0.00399363
2142	0.00359427
2154	0.00386051
2166	0.00412675
2178	0.00359427
2190	0.00372739
2202	0.00292866
2214	0.00386051
2226	0.00332802
2238	0.00372739
2250	0.00359427
2262	0.00372739
2274	0.00465923
2286	0.00465923
2298	0.00346115
2310	0.00292866
2322	0.00212994
2334	0.00186369
2346	0.00186369
2358	0.00186369
2370	0.0025293
2382	0.00479236
2394	0.00359427
2406	0.00372739
2418	0.00412675
2430	0.00372739
2442	0.00399363
2454	0.00372739
2466	0.00399363
2478	0.00412675
2490	0.00465923
2502	0.00492548
2514	0.00585732
2526	0.00625669
2538	0.00665605
2550	0.00718853
2562	0.00772102
2574	0.00865286
2586	0.00985095
2598	0.0111822
2610	0.0122471
2622	0.0130459
2634	0.0143771
2646	0.0157083
2658	0.0174389
2670	0.019835
2682	0.0232962
2694	0.0262248
2706	0.0283548
2718	0.0318159
2730	0.0344783
2742	0.0376732
2754	0.0390045
2766	0.0416669
2778	0.0483229
2790	0.059372
2802	0.0718853
2814	0.0873274
2826	0.113552
2838	0.176385
2850	0.362488
2862	0.701148
2874	0.635653
2886	0.488421
2898	0.457004
2910	0.601707
2922	0.916272
2934	1.33121
2946	0.934909
2958	0.594652
2970	0.453809
2982	0.211796
2994	0.125932
3006	0.0897236
3018	0.0669599
3030	0.0525828
3042	0.0400694
3054	0.0318159
3066	0.0264911
3078	0.025293
3090	0.0179713
3102	0.0157083
3114	0.0138446
3126	0.0117146
3138	0.00998407
3150	0.00838662
3162	0.00878599
3174	0.00772102
3186	0.00745478
3198	0.00705541
3210	0.0057242
3222	0.00479236
3234	0.00532484
3246	0.00425987
3258	0.00386051
3270	0.00266242
3282	0.00372739
3294	0.00266242
3306	0.00292866
3318	0.00306178
3330	0.00199681
3342	0.0025293
3354	0.00279554
3366	0.00212994
3378	0.00306178
3390	0.00292866
3402	0.0025293
3414	0.00279554
3426	0.00359427
3438	0.00306178
3450	0.00359427
3462	0.00279554
3474	0.00306178
3486	0.00399363
3498	0.00519172
3510	0.00412675
3522	0.00346115
3534	0.00266242
3546	0.00412675
3558	0.0025293
3570	0.0149096
3582	0.0149096
3594	0.00625669
3606	0.00479236
3618	0.00559108
3630	0.00665605
3642	0.00439299
3654	0.00732165
3666	0.00559108
3678	0.00665605
3690	0.00532484
3702	0.00732165
3714	0.00705541
3726	0.00412675
3738	0.00372739
3750	0.00945159
3762	0.00692229
3774	0.00532484
3786	0.00559108
3798	0.00705541
3810	0.00638981
3822	0.0075879
3834	0.00812038
3846	0.0113153
3858	0.00812038
3870	0.00519172
3882	0.00812038
3894	0.00692229
3906	0.00878599
3918	0.0105166
3930	0.00625669
3942	0.00998407
3954	0.00931847
3966	0.00985095
