Infrared Spectrum: Butanoic acid, 2-butoxy-1-methyl-2-oxoethyl ester
Formula: C 11 H 20 O 4
CAS: 7492-70-8
Origin: Sadtler Research Labs Under US-EPA Contract
1/CM	ABSORBANCE
450	0.00144061
462	0.00720305
474	0.00950803
486	0.000144061
498	0.000144061
510	0.0112368
522	0.00561838
534	0.00129655
546	0.0116689
558	0.0102283
570	0.00950803
582	0.00907584
594	0.0146942
606	0.0125333
618	0.0125333
630	0.0119571
642	0.0149823
654	0.0103724
666	0.00648274
678	0.00763523
690	0.00777929
702	0.00720305
714	0.0084996
726	0.0122452
738	0.0197364
750	0.0247785
762	0.0206007
774	0.0144061
786	0.0100843
798	0.0168551
810	0.0181517
822	0.0131096
834	0.0184398
846	0.026075
858	0.0240582
870	0.0229057
882	0.0206007
894	0.0214651
906	0.0200245
918	0.0169992
930	0.0234819
942	0.0466758
954	0.0792335
966	0.0813945
978	0.0550313
990	0.0342865
1002	0.0460995
1014	0.0473961
1026	0.063675
1038	0.119138
1050	0.174602
1062	0.204423
1074	0.239573
1086	0.338111
1098	0.56155
1110	0.559533
1122	0.490816
1134	0.526399
1146	0.295613
1158	0.349492
1170	0.693077
1182	0.69423
1194	0.640495
1206	0.544407
1218	0.363178
1230	0.314773
1242	0.340992
1254	0.403515
1266	0.400922
1278	0.309731
1290	0.200533
1302	0.162645
1314	0.146222
1326	0.121587
1338	0.12735
1350	0.157171
1362	0.192033
1374	0.177771
1386	0.158323
1398	0.104156
1410	0.0509976
1422	0.0522941
1434	0.0691493
1446	0.0851401
1458	0.158323
1470	0.139451
1482	0.0648274
1494	0.0305409
1506	0.0224735
1518	0.0167111
1530	0.0126774
1542	0.0145502
1554	0.0092199
1566	0.00792335
1578	0.00561838
1590	0.00605056
1602	0.0059065
1614	0.00561838
1626	0.00835554
1638	0.00835554
1650	0.0132536
1662	0.0103724
1674	0.0167111
1686	0.0230498
1698	0.0321256
1710	0.0491248
1722	0.087301
1734	0.162645
1746	0.425412
1758	1.33631
1770	0.890729
1782	0.342721
1794	0.150544
1806	0.0838435
1818	0.0413455
1830	0.0250666
1842	0.0162789
1854	0.0113808
1866	0.00979615
1878	0.00662681
1890	0.00677087
1902	0.00619462
1914	0.0059065
1926	0.00533026
1938	0.00547432
1950	0.0059065
1962	0.0051862
1974	0.00504213
1986	0.00460995
1998	0.00446589
2010	0.00360152
2022	0.00316934
2034	0.00374559
2046	0.0059065
2058	0.00605056
2070	0.00561838
2082	0.00633868
2094	0.00605056
2106	0.00460995
2118	0.00403371
2130	0.00374559
2142	0.00360152
2154	0.0033134
2166	0.00316934
2178	0.00316934
2190	0.00302528
2202	0.00316934
2214	0.00244904
2226	0.0025931
2238	0.00230498
2250	0.00273716
2262	0.00302528
2274	0.00288122
2286	0.00345746
2298	0.00533026
2310	0.00662681
2322	0.00561838
2334	0.000144061
2346	0
2358	0.00446589
2370	0
2382	0
2394	0.00302528
2406	0.00316934
2418	0.00345746
2430	0.00216091
2442	0.00172873
2454	0.00187279
2466	0.00129655
2478	0.00144061
2490	0.00187279
2502	0.00158467
2514	0.00144061
2526	0.00100843
2538	0.000576244
2550	0.000576244
2562	0.000864366
2574	0.000576244
2586	0.000288122
2598	0
2610	0.000720305
2622	0.00129655
2634	0.00172873
2646	0.000720305
2658	0.0025931
2670	0.00446589
2682	0.00230498
2694	0.0025931
2706	0.00288122
2718	0.00417777
2730	0.00417777
2742	0.00605056
2754	0.00792335
2766	0.00720305
2778	0.00749117
2790	0.00878772
2802	0.0110927
2814	0.0131096
2826	0.0178636
2838	0.0246344
2850	0.0396168
2862	0.0630987
2874	0.116113
2886	0.218685
2898	0.164662
2910	0.156594
2922	0.200389
2934	0.264208
2946	0.404379
2958	0.391414
2970	0.557804
2982	0.421234
2994	0.247785
3006	0.153569
3018	0.047252
3030	0.0279478
3042	0.0190161
3054	0.0126774
3066	0.00950803
3078	0.00662681
3090	0.00691493
3102	0.00547432
3114	0.00460995
3126	0.00475401
3138	0.00475401
3150	0.00417777
3162	0.00403371
3174	0.00475401
3186	0.00677087
3198	0.00576244
3210	0.00374559
3222	0.0051862
3234	0.00403371
3246	0.00374559
3258	0.0059065
3270	0.00432183
3282	0.00446589
3294	0.00432183
3306	0.00288122
3318	0.00244904
3330	0.00129655
3342	0.000720305
3354	0.000288122
3366	0.00172873
3378	0.00244904
3390	0.00201685
3402	0.00273716
3414	0.00244904
3426	0.0025931
3438	0.00273716
3450	0.00244904
3462	0.00273716
3474	0.0051862
3486	0.00835554
3498	0.0109486
3510	0.00936396
3522	0.00561838
3534	0.00489807
3546	0.00547432
3558	0.00864366
3570	0.0210329
3582	0.0239141
3594	0.00950803
3606	0.00561838
3618	0.00504213
3630	0.00100843
3642	0.00360152
3654	0.00489807
3666	0.00345746
3678	0.00388965
3690	0.00432183
3702	0.00360152
3714	0.00129655
3726	0.00201685
3738	0.00100843
3750	0.00201685
3762	0.00374559
3774	0.00388965
3786	0.00360152
3798	0.0051862
3810	0.00302528
3822	0.0033134
3834	0.00388965
3846	0.00417777
3858	0.00489807
3870	0.00619462
3882	0.00734711
3894	0.00273716
3906	0.0033134
3918	0.00417777
3930	0.00489807
3942	0.00100843
3954	0.0033134
3966	0.00345746
