Infrared Spectrum: Benzeneacetic acid, 3-phenyl-2-propenyl ester
Formula: C 17 H 16 O 2
CAS: 7492-65-1
Origin: Sadtler Research Labs Under US-EPA Contract
1/CM	ABSORBANCE
450	0.00187509
462	0.00562527
474	0.0185009
486	0.00912544
498	0.00868792
510	0.0082504
522	0.0118756
534	0.0193759
546	0.0196259
558	0.00812539
570	0.00887543
582	0.00900043
594	0.00662532
606	0.00862541
618	0.0125006
630	0.0180634
642	0.0220636
654	0.0150007
666	0.0278763
678	0.0699409
690	0.176571
702	0.190197
714	0.191634
726	0.151132
738	0.126256
750	0.0887543
762	0.042627
774	0.0161883
786	0.00643781
798	0.00675032
810	0.011063
822	0.0123131
834	0.00881292
846	0.010563
858	0.00981297
870	0.00975047
882	0.0127506
894	0.0150632
906	0.0200635
918	0.0230636
930	0.031189
942	0.0535026
954	0.114068
966	0.21551
978	0.198885
990	0.210885
1002	0.139007
1014	0.073066
1026	0.0661907
1038	0.0516275
1050	0.0444396
1062	0.0589403
1074	0.061753
1086	0.061878
1098	0.0916919
1110	0.142069
1122	0.260825
1134	0.527525
1146	0.523275
1158	0.306077
1170	0.168196
1182	0.128631
1194	0.118443
1206	0.148382
1218	0.217385
1230	0.362705
1242	0.424645
1254	0.345204
1266	0.236761
1278	0.159258
1290	0.133506
1302	0.125506
1314	0.117318
1326	0.115068
1338	0.101505
1350	0.0679408
1362	0.0563777
1374	0.0611279
1386	0.0405644
1398	0.021001
1410	0.0196884
1422	0.0303765
1434	0.0539401
1446	0.0748786
1458	0.0705659
1470	0.031439
1482	0.0281263
1494	0.106193
1506	0.0536901
1518	0.0116256
1530	0.00925044
1542	0.00993798
1554	0.00887543
1566	0.0107505
1578	0.0181884
1590	0.0296264
1602	0.0490649
1614	0.0244387
1626	0.010688
1638	0.011188
1650	0.0173758
1662	0.0185009
1674	0.0170008
1686	0.0195009
1698	0.0267513
1710	0.0453147
1722	0.0768162
1734	0.154882
1746	0.382893
1758	0.62503
1770	0.277826
1782	0.123006
1794	0.0796913
1806	0.0431896
1818	0.0248762
1830	0.0160633
1842	0.0127506
1854	0.0123131
1866	0.0153757
1878	0.0154382
1890	0.0137507
1902	0.0083754
1914	0.0084379
1926	0.0123131
1938	0.0180009
1950	0.0193134
1962	0.0146882
1974	0.00743786
1986	0.0062503
1998	0.00518775
2010	0.00525025
2022	0.00525025
2034	0.00456272
2046	0.00612529
2058	0.0063128
2070	0.00456272
2082	0.00587528
2094	0.00506274
2106	0.00356267
2118	0.00331266
2130	0.00287514
2142	0.00281263
2154	0.00312515
2166	0.00275013
2178	0.00243762
2190	0.00306265
2202	0.00343766
2214	0.00325016
2226	0.00331266
2238	0.00368768
2250	0.00406269
2262	0.00437521
2274	0.00450022
2286	0.00575028
2298	0.00781287
2310	0.0121256
2322	0.0130631
2334	0.0083129
2346	0.00562527
2358	0.011438
2370	0.000250012
2382	0.00162508
2394	0.00337516
2406	0.00356267
2418	0.00343766
2430	0.00325016
2442	0.00300014
2454	0.00243762
2466	0.00293764
2478	0.00312515
2490	0.00293764
2502	0.00350017
2514	0.00381268
2526	0.00406269
2538	0.00356267
2550	0.00381268
2562	0.0042502
2574	0.00306265
2586	0.00306265
2598	0.00262513
2610	0.00281263
2622	0.00306265
2634	0.00325016
2646	0.00168758
2658	0.00293764
2670	0.00462522
2682	0.00331266
2694	0.00381268
2706	0.0042502
2718	0.00431271
2730	0.00462522
2742	0.00450022
2754	0.00531275
2766	0.00531275
2778	0.00443771
2790	0.00587528
2802	0.00681283
2814	0.00731285
2826	0.00968796
2838	0.010938
2850	0.0158133
2862	0.0237511
2874	0.0271888
2886	0.0338141
2898	0.0344392
2910	0.0365018
2922	0.0520025
2934	0.0781287
2946	0.0908794
2958	0.0881917
2970	0.0620655
2982	0.0459397
2994	0.0403144
3006	0.042502
3018	0.0681283
3030	0.137632
3042	0.16482
3054	0.101567
3066	0.152132
3078	0.153382
3090	0.0963796
3102	0.061878
3114	0.0343766
3126	0.0129381
3138	0.00706284
3150	0.00506274
3162	0.00643781
3174	0.0041252
3186	0.00487523
3198	0.00343766
3210	0.00331266
3222	0.00306265
3234	0.00293764
3246	0.00293764
3258	0.00393769
3270	0.00318765
3282	0.00300014
3294	0.00443771
3306	0.00275013
3318	0.00262513
3330	0.00506274
3342	0.00437521
3354	0.00368768
3366	0.00481273
3378	0.00281263
3390	0.00450022
3402	0.00343766
3414	0.00262513
3426	0.00356267
3438	0.00250012
3450	0.0041877
3462	0.00156257
3474	0.00787538
3486	0.00725035
3498	0.00593778
3510	0.00587528
3522	0.00437521
3534	0.00150007
3546	0.00256262
3558	0.00281263
3570	0.00531275
3582	0.00725035
3594	0.00256262
3606	0.00450022
3618	0.0042502
3630	0.00225011
3642	0.00387519
3654	0.00231261
3666	0.00437521
3678	0.00256262
3690	0.00262513
3702	0.00393769
3714	0.000375018
3726	0.00281263
3738	0.000250012
3750	0.000250012
3762	0.000375018
3774	0.000250012
3786	0.00125006
3798	0.000812539
3810	0.000250012
3822	0.000187509
3834	0.000437521
3846	0.000437521
3858	0.000375018
3870	0.000250012
3882	0.000250012
3894	0.00381268
3906	0.000125006
3918	0.00287514
3930	0.00387519
3942	0.000437521
3954	0.00062503
3966	0.000250012
