Infrared Spectrum: Benzoic acid, 2-amino-, 2-propenyl ester
Formula: C 10 H 11 N O 2
CAS: 7493-63-2
Origin: Sadtler Research Labs Under US-EPA Contract
1/CM	ABSORBANCE
450	0.0171239
462	0.0068931
474	0.00827173
486	0.0164709
498	0.0181397
510	0.0351186
522	0.0335223
534	0.0173416
546	0.0242347
558	0.0189379
570	0.00805405
582	0.012335
594	0.0145118
606	0.012335
618	0.0228561
630	0.0346106
642	0.0309101
654	0.029459
666	0.0363521
678	0.0292413
690	0.0403428
702	0.0489048
714	0.0200263
726	0.0209696
738	0.0711804
750	0.130098
762	0.035699
774	0.0109564
786	0.0103034
798	0.0144392
810	0.0142941
822	0.0169062
834	0.0212598
846	0.0261938
858	0.0203165
870	0.0157453
882	0.0124076
894	0.0151648
906	0.0176318
918	0.0345381
930	0.055943
942	0.0341027
954	0.0209696
966	0.033232
978	0.0502834
990	0.0385288
1002	0.0288785
1014	0.0206793
1026	0.0311278
1038	0.0344655
1050	0.0379484
1062	0.0897555
1074	0.131622
1086	0.165362
1098	0.282109
1110	0.27986
1122	0.146206
1134	0.0635617
1146	0.0591356
1158	0.20556
1170	0.0883043
1182	0.0265566
1194	0.0212598
1206	0.025831
1218	0.0486145
1230	0.160428
1242	0.606013
1254	0.483388
1266	0.150632
1278	0.191991
1290	0.313237
1302	0.145336
1314	0.0779284
1326	0.0619654
1338	0.0275724
1350	0.0232189
1362	0.048542
1374	0.0362795
1386	0.0194458
1398	0.0088522
1410	0.0113918
1422	0.0118271
1434	0.0228561
1446	0.0441159
1458	0.0657385
1470	0.0501383
1482	0.0558704
1494	0.0700194
1506	0.0270645
1518	0.00979546
1530	0.0120448
1542	0.00928755
1554	0.0372228
1566	0.0758242
1578	0.0653757
1590	0.131259
1602	0.194531
1614	0.236542
1626	0.222248
1638	0.0642873
1650	0.030765
1662	0.0211147
1674	0.0201714
1686	0.0330869
1698	0.157453
1710	0.395011
1722	0.212308
1734	0.0817014
1746	0.040633
1758	0.0156727
1770	0.0111015
1782	0.00986802
1794	0.00609496
1806	0.0060224
1818	0.00515169
1830	0.00072559
1842	0.00195909
1854	0.00464378
1866	0.00486145
1878	0.00420842
1890	0.00348283
1902	0.00500657
1914	0.00812661
1926	0.00551448
1938	0.00551448
1950	0.00326515
1962	0.00341027
1974	0.00224933
1986	0.00275724
1998	0.00304748
2010	0.00290236
2022	0.00355539
2034	0.00377307
2046	0.00377307
2058	0.00355539
2070	0.00312004
2082	0.00290236
2094	0.00304748
2106	0.00217677
2118	0.00261212
2130	0.00312004
2142	0.00261212
2154	0.00261212
2166	0.00290236
2178	0.00290236
2190	0.00290236
2202	0.00355539
2214	0.00377307
2226	0.00355539
2238	0.00355539
2250	0.00333771
2262	0.00384563
2274	0.00420842
2286	0.00384563
2298	0.00355539
2310	0.00275724
2322	0.00101583
2334	0.00072559
2346	0.00137862
2358	0.00072559
2370	0.00072559
2382	0.0040633
2394	0.00515169
2406	0.00500657
2418	0.00507913
2430	0.00457122
2442	0.00515169
2454	0.00544192
2466	0.00507913
2478	0.00536937
2490	0.00471633
2502	0.00493401
2514	0.00507913
2526	0.00551448
2538	0.00478889
2550	0.00486145
2562	0.00457122
2574	0.00457122
2586	0.00551448
2598	0.00544192
2610	0.00573216
2622	0.00660287
2634	0.00711078
2646	0.00703822
2658	0.0068931
2670	0.00609496
2682	0.0056596
2694	0.00573216
2706	0.00544192
2718	0.00551448
2730	0.00616751
2742	0.00529681
2754	0.00500657
2766	0.00558704
2778	0.00616751
2790	0.00703822
2802	0.00740102
2814	0.00827173
2826	0.00827173
2838	0.00914243
2850	0.00943267
2862	0.0116094
2874	0.0125527
2886	0.0161081
2898	0.0186477
2910	0.016616
2922	0.0165435
2934	0.0230738
2946	0.0345381
2958	0.0446963
2970	0.0296041
2982	0.019736
2994	0.0225658
3006	0.0231463
3018	0.0235091
3030	0.0364972
3042	0.0367149
3054	0.0366423
3066	0.03998
3078	0.0363521
3090	0.0483969
3102	0.0348283
3114	0.0185025
3126	0.0109564
3138	0.0100131
3150	0.00986802
3162	0.00819917
3174	0.00957779
3186	0.00994058
3198	0.00790893
3210	0.00732846
3222	0.00580472
3234	0.00507913
3246	0.00580472
3258	0.00624007
3270	0.0068931
3282	0.00754614
3294	0.00841684
3306	0.0105936
3318	0.0113192
3330	0.0107387
3342	0.0107387
3354	0.0134234
3366	0.0188653
3378	0.0497029
3390	0.113192
3402	0.0655933
3414	0.0268468
3426	0.0212598
3438	0.0153099
3450	0.0103759
3462	0.0107387
3474	0.0120448
3486	0.0182123
3498	0.0283706
3510	0.0518797
3522	0.0761144
3534	0.0457122
3546	0.0167611
3558	0.011682
3570	0.00827173
3582	0.00972291
3594	0.0084894
3606	0.00783637
3618	0.00594984
3630	0.00312004
3642	0.00790893
3654	0.00500657
3666	0.00740102
3678	0.00304748
3690	0.00348283
3702	0.00558704
3714	0.00362795
3726	0.00341027
3738	0.00181397
3750	0.000798149
3762	0.00457122
3774	0.00609496
3786	0.00573216
3798	0.00377307
3810	0.00384563
3822	0.00217677
3834	0.0028298
3846	0.00377307
3858	0.0031926
3870	0.00246701
3882	0.00457122
3894	0.00449866
3906	0.0056596
3918	0.00754614
3930	0.00790893
3942	0.00870708
3954	0
3966	0.00072559
