Infrared Spectrum: 2-Butanone, 3,3-dimethyl-
Formula: C 6 H 12 O
CAS: 75-97-8
Origin: Sadtler Research Labs Under US-EPA Contract
1/CM	ABSORBANCE
450	0
462	0.0174966
474	0.0179905
486	0.0037392
498	0.00634959
510	0.00761951
522	0.0111471
534	0.0186255
546	0.0472692
558	0.0565819
570	0.029067
582	0.0112882
594	0.00966549
606	0.00804281
618	0.00973604
630	0.00924218
642	0.0133341
654	0.0227174
666	0.036616
678	0.0294903
690	0.0107943
702	0.0105826
714	0.00853667
726	0.00592628
738	0.00634959
750	0.00769006
762	0.00698455
774	0.0071962
786	0.0112882
798	0.0109354
810	0.0107943
822	0.0220825
834	0.0250456
846	0.0170733
858	0.00888943
870	0.00825447
882	0.00818392
894	0.00952438
906	0.0111471
918	0.0157329
930	0.0343583
942	0.0663179
954	0.0793699
966	0.0574285
978	0.0347111
990	0.0251867
1002	0.0197543
1014	0.0160856
1026	0.0155212
1038	0.0155212
1050	0.0168617
1062	0.0174261
1074	0.0178494
1086	0.0210947
1098	0.0305486
1110	0.0649069
1122	0.221883
1134	0.364678
1146	0.277124
1158	0.0783822
1170	0.0385914
1182	0.0320302
1194	0.0337234
1206	0.0439533
1218	0.0413429
1230	0.0277265
1242	0.0259628
1254	0.0374626
1266	0.0591923
1278	0.0584162
1290	0.0335823
1302	0.0190488
1314	0.0212359
1326	0.0317479
1338	0.0754896
1350	0.174896
1362	0.251162
1374	0.227456
1386	0.146041
1398	0.0932684
1410	0.0709038
1422	0.0565114
1434	0.063002
1446	0.0788055
1458	0.114363
1470	0.161985
1482	0.165654
1494	0.112882
1506	0.0498796
1518	0.0293492
1530	0.0220825
1542	0.0228585
1554	0.0175672
1566	0.0153801
1578	0.0148863
1590	0.0151685
1602	0.0150274
1614	0.015874
1626	0.0177083
1638	0.0194721
1650	0.024199
1662	0.0264566
1674	0.0429656
1686	0.0702688
1698	0.144065
1710	0.42507
1722	0.695068
1734	0.573156
1746	0.184773
1758	0.0561586
1770	0.0288554
1782	0.0167206
1794	0.0141102
1806	0.0107238
1818	0.00832502
1830	0.00874832
1842	0.00790171
1854	0.00649069
1866	0.00832502
1878	0.00895998
1890	0.00938328
1902	0.00895998
1914	0.00903053
1926	0.00917163
1938	0.00938328
1950	0.00804281
1962	0.00754896
1974	0.0067729
1986	0.00620849
1998	0.00663179
2010	0.0067729
2022	0.0070551
2034	0.00684345
2046	0.00606739
2058	0.00479747
2070	0.00634959
2082	0.00606739
2094	0.00599683
2106	0.00500912
2118	0.00465637
2130	0.00493857
2142	0.00522077
2154	0.00529132
2166	0.00515022
2178	0.00550298
2190	0.00529132
2202	0.00642014
2214	0.00515022
2226	0.00465637
2238	0.00444471
2250	0.00444471
2262	0.00437416
2274	0.00543243
2286	0.00592628
2298	0.00642014
2310	0.00627904
2322	0.00451526
2334	0.00486802
2346	0.00423306
2358	0.00310424
2370	0.00592628
2382	0.00536188
2394	0.00493857
2406	0.00507967
2418	0.00507967
2430	0.00479747
2442	0.00402141
2454	0.00430361
2466	0.00479747
2478	0.00515022
2490	0.00529132
2502	0.00578518
2514	0.00437416
2526	0.00423306
2538	0.00402141
2550	0.0038803
2562	0.00310424
2574	0.00338645
2586	0.00430361
2598	0.00458582
2610	0.00402141
2622	0.00458582
2634	0.00451526
2646	0.00437416
2658	0.00458582
2670	0.00472692
2682	0.00479747
2694	0.00395086
2706	0.00423306
2718	0.00656124
2730	0.00832502
2742	0.00846612
2754	0.00853667
2766	0.00747841
2778	0.0071962
2790	0.00874832
2802	0.0102299
2814	0.0118526
2826	0.0150274
2838	0.0199659
2850	0.0296314
2862	0.0603917
2874	0.122759
2886	0.163255
2898	0.148792
2910	0.1665
2922	0.19204
2934	0.213558
2946	0.271833
2958	0.415545
2970	0.651962
2982	0.60434
2994	0.295115
3006	0.109989
3018	0.0541832
3030	0.0357694
3042	0.0240579
3054	0.018696
3066	0.017285
3078	0.0149568
3090	0.013193
3102	0.0113587
3114	0.00980659
3126	0.00910108
3138	0.00867777
3150	0.00804281
3162	0.00867777
3174	0.00888943
3186	0.00846612
3198	0.00599683
3210	0.00712565
3222	0.006914
3234	0.00642014
3246	0.00522077
3258	0.00529132
3270	0.00698455
3282	0.00783116
3294	0.00515022
3306	0.00416251
3318	0.00804281
3330	0.00437416
3342	0.00783116
3354	0.0114293
3366	0.00493857
3378	0.00797226
3390	0.00959494
3402	0.00938328
3414	0.012417
3426	0.0203892
3438	0.0186255
3450	0.0113587
3462	0.00663179
3474	0.00515022
3486	0.00585573
3498	0.00606739
3510	0.00642014
3522	0.00557353
3534	0.00479747
3546	0.00493857
3558	0.00557353
3570	0.00515022
3582	0.00515022
3594	0.00543243
3606	0.00769006
3618	0.00634959
3630	0.00585573
3642	0.0071962
3654	0.00416251
3666	0.00592628
3678	0.00557353
3690	0.00592628
3702	0.00472692
3714	0.00465637
3726	0.00395086
3738	0.00493857
3750	0.00402141
3762	0.00324535
3774	0.00493857
3786	0.00437416
3798	0.00451526
3810	0.00585573
3822	0.00515022
3834	0.0035981
3846	0.00564408
3858	0.00536188
3870	0.00409196
3882	0.00479747
3894	0.00684345
3906	0.00522077
3918	0.00634959
3930	0.00451526
3942	0.0070551
3954	0.00529132
3966	0.00515022
