Infrared Spectrum: Propanoic acid, 2,2-dimethyl-
Formula: C 5 H 10 O 2
CAS: 75-98-9
Origin: Sadtler Research Labs Under US-EPA Contract
1/CM	ABSORBANCE
450	0.0131356
462	0.0291113
474	0.0119818
486	0.0317739
498	0.043312
510	0.0665655
522	0.0696719
534	0.0658555
546	0.0868902
558	0.164905
570	0.25428
582	0.262712
594	0.182389
606	0.110587
618	0.0789023
630	0.0380755
642	0.0190821
654	0.0149107
666	0.0103842
678	0.00843163
690	0.00976294
702	0.0325727
714	0.0604415
726	0.0661217
738	0.038963
750	0.0288451
762	0.0426019
774	0.0806774
786	0.0523649
798	0.0371879
810	0.0240523
822	0.0160645
834	0.0146444
846	0.0226323
858	0.0325727
870	0.0219222
882	0.00985169
894	0.00869789
906	0.00914166
918	0.0110942
930	0.0143781
942	0.0170408
954	0.0141119
966	0.0102955
978	0.0103842
990	0.0139344
1002	0.0209459
1014	0.0468621
1026	0.0748196
1038	0.0671868
1050	0.0413594
1062	0.0417144
1074	0.0619503
1086	0.123546
1098	0.351377
1110	0.753078
1122	0.820264
1134	0.477053
1146	0.155053
1158	0.0858251
1170	0.0505898
1182	0.0380755
1194	0.0441995
1206	0.0537849
1218	0.0492585
1230	0.038253
1242	0.0307976
1254	0.0256499
1266	0.0197034
1278	0.0238748
1290	0.0388743
1302	0.0696719
1314	0.0922154
1326	0.0784585
1338	0.0449095
1350	0.0388743
1362	0.0581339
1374	0.0835175
1386	0.0640804
1398	0.0502348
1410	0.0493472
1422	0.0315077
1434	0.0235198
1446	0.0372767
1458	0.0573351
1470	0.0812099
1482	0.106327
1494	0.0842275
1506	0.033549
1518	0.010828
1530	0.00834288
1542	0.0126031
1554	0.011538
1566	0.00807661
1578	0.00612403
1590	0.0055915
1602	0.00594652
1614	0.0044377
1626	0.00523649
1638	0.00514773
1650	0.0067453
1662	0.00585776
1674	0.00727783
1686	0.0150882
1698	0.0229873
1710	0.0426019
1722	0.0767722
1734	0.122747
1746	0.249487
1758	0.602107
1770	0.83908
1782	0.661306
1794	0.214696
1806	0.0940792
1818	0.0415369
1830	0.0197034
1842	0.0102955
1854	0.00568026
1866	0.00355016
1878	0.00292888
1890	0.00363891
1902	0.00221885
1914	0.0023076
1926	0.0023076
1938	0.00346141
1950	0.00568026
1962	0.00505898
1974	0.0044377
1986	0.00257387
1998	0.00186383
2010	0.00239636
2022	0.00239636
2034	0.00319514
2046	0.00221885
2058	0.00159757
2070	0.00221885
2082	0.0023076
2094	0.0023076
2106	0.00204134
2118	0.00168633
2130	0.00292888
2142	0.00355016
2154	0.00363891
2166	0.00239636
2178	0.00221885
2190	0.00195259
2202	0.00310639
2214	0.00541399
2226	0.0055915
2238	0.00452645
2250	0.00266262
2262	0.0021301
2274	0.00195259
2286	0.00239636
2298	0.0021301
2310	0.00124256
2322	0.000532524
2334	0
2346	0
2358	0.000177508
2370	0
2382	0.00088754
2394	0.00239636
2406	0.00372767
2418	0.00461521
2430	0.00434895
2442	0.00372767
2454	0.00301764
2466	0.00408268
2478	0.00434895
2490	0.00355016
2502	0.00257387
2514	0.00186383
2526	0.00221885
2538	0.00195259
2550	0.00221885
2562	0.00266262
2574	0.00275137
2586	0.00292888
2598	0.00292888
2610	0.00426019
2622	0.00372767
2634	0.0032839
2646	0.00275137
2658	0.00275137
2670	0.00337265
2682	0.00390518
2694	0.0032839
2706	0.00292888
2718	0.00292888
2730	0.00452645
2742	0.00514773
2754	0.00461521
2766	0.00434895
2778	0.00417144
2790	0.00523649
2802	0.00683406
2814	0.00843163
2826	0.00834288
2838	0.0102067
2850	0.0137569
2862	0.0260937
2874	0.0599977
2886	0.0923042
2898	0.0862689
2910	0.0935467
2922	0.109079
2934	0.122924
2946	0.134196
2958	0.174845
2970	0.28845
2982	0.379778
2994	0.297858
3006	0.116445
3018	0.0296438
3030	0.0125143
3042	0.00834288
3054	0.00789911
3066	0.0088754
3078	0.00923042
3090	0.00798786
3102	0.00754409
3114	0.00834288
3126	0.00852038
3138	0.00931917
3150	0.00896415
3162	0.00967419
3174	0.00896415
3186	0.0102067
3198	0.0105617
3210	0.010118
3222	0.00949668
3234	0.00781035
3246	0.00869789
3258	0.00710032
3270	0.00594652
3282	0.00576901
3294	0.00461521
3306	0.00488147
3318	0.00550275
3330	0.00692281
3342	0.00621278
3354	0.00470396
3366	0.00470396
3378	0.0032839
3390	0.00381642
3402	0.00346141
3414	0.00363891
3426	0.00319514
3438	0.00266262
3450	0.00390518
3462	0.00390518
3474	0.00461521
3486	0.0044377
3498	0.00514773
3510	0.00807661
3522	0.00967419
3534	0.0103842
3546	0.00905291
3558	0.0545837
3570	0.196413
3582	0.230139
3594	0.116179
3606	0.00923042
3618	0.00434895
3630	0.00292888
3642	0.00266262
3654	0.00639029
3666	0.00275137
3678	0.00488147
3690	0.00488147
3702	0.000532524
3714	0.000976294
3726	0.0023076
3738	0.00355016
3750	0.00647904
3762	0.00168633
3774	0.00319514
3786	0.00363891
3798	0.00612403
3810	0.0011538
3822	0.0077216
3834	0.00301764
3846	0.00399393
3858	0.00630153
3870	0.00532524
3882	0.00497022
3894	0.00399393
3906	0.00133131
3918	0.00284013
3930	0.00665655
3942	0.00718907
3954	0.00434895
3966	0.000976294
