Infrared Spectrum: 4-Cyclohexene-1,2-dicarboxylic acid, dimethyl ester
Formula: C 10 H 14 O 4
CAS: 7500-55-2
Origin: Sadtler Research Labs Under US-EPA Contract
1/CM	ABSORBANCE
450	0.0120387
462	0.00464351
474	0.00911505
486	0.00997496
498	0.0101469
510	0.0085991
522	0.0108349
534	0.00928703
546	0.0067073
558	0.00636333
570	0.00309568
582	0.00309568
594	0.00498748
606	0.0048155
618	0.0130706
630	0.0302688
642	0.0737803
654	0.198295
666	0.184881
678	0.0675889
690	0.0227016
702	0.0134146
714	0.0104909
726	0.0239055
738	0.018746
750	0.00928703
762	0.0104909
774	0.0263132
786	0.0350843
798	0.0438554
810	0.0233896
822	0.0177141
834	0.038524
846	0.0488429
858	0.0197779
870	0.0318167
882	0.0251094
894	0.028377
906	0.0529705
918	0.0436834
930	0.0684488
942	0.0534864
954	0.0493588
966	0.028549
978	0.0271732
990	0.057442
1002	0.0772199
1014	0.115916
1026	0.32539
1038	0.409317
1050	0.195372
1062	0.104049
1074	0.0601937
1086	0.0507347
1098	0.067073
1110	0.103705
1122	0.106113
1134	0.137414
1146	0.284802
1158	0.671418
1170	1.00472
1182	1.12562
1194	1.17653
1206	1.13044
1218	0.80694
1230	0.671934
1242	0.66643
1254	0.610364
1266	0.363398
1278	0.317307
1290	0.381628
1302	0.331925
1314	0.167167
1326	0.107145
1338	0.122967
1350	0.14842
1362	0.1866
1374	0.151344
1386	0.0968259
1398	0.0631174
1410	0.0459192
1422	0.0593338
1434	0.270356
1446	0.364602
1458	0.119527
1470	0.0749842
1482	0.0467791
1494	0.0295809
1506	0.0235615
1518	0.018746
1530	0.0170262
1542	0.0197779
1554	0.0184021
1566	0.0166823
1578	0.0154784
1590	0.0111788
1602	0.0101469
1614	0.0142745
1626	0.0163383
1638	0.0151344
1650	0.0321606
1662	0.0369761
1674	0.0233896
1686	0.0340524
1698	0.0517666
1710	0.0930423
1722	0.17353
1734	0.373201
1746	1.01263
1758	1.71982
1770	0.953124
1782	0.285146
1794	0.100781
1806	0.0505627
1818	0.0295809
1830	0.0214977
1842	0.0147905
1854	0.00911505
1866	0.00808315
1878	0.00739523
1890	0.00791117
1902	0.00653532
1914	0.00550342
1926	0.00429955
1938	0.00464351
1950	0.0048155
1962	0.00584739
1974	0.00567541
1986	0.00722324
1998	0.0101469
2010	0.0101469
2022	0.0103189
2034	0.0101469
2046	0.00997496
2058	0.00997496
2070	0.00963099
2082	0.00825514
2094	0.00687928
2106	0.00567541
2118	0.00464351
2130	0.00464351
2142	0.00412757
2154	0.00361162
2166	0.00257973
2178	0.0018918
2190	0.00137586
2202	0.000687928
2214	0.000343964
2226	0.000515946
2238	0.000343964
2250	0
2262	0.000171982
2274	0.000515946
2286	0.00103189
2298	0.00154784
2310	0.00412757
2322	0.00412757
2334	0.0037836
2346	0.00619135
2358	0.00395559
2370	0.00498748
2382	0.00464351
2394	0.00395559
2406	0.00412757
2418	0.00292369
2430	0.00240775
2442	0.0018918
2454	0.00154784
2466	0.00137586
2478	0.00154784
2490	0.00171982
2502	0.00223577
2514	0.00206378
2526	0.00206378
2538	0.00275171
2550	0.00275171
2562	0.00257973
2574	0.00292369
2586	0.0037836
2598	0.00429955
2610	0.00412757
2622	0.00361162
2634	0.00361162
2646	0.00412757
2658	0.00464351
2670	0.00447153
2682	0.0037836
2694	0.00326766
2706	0.00292369
2718	0.00309568
2730	0.00309568
2742	0.00309568
2754	0.00326766
2766	0.00567541
2778	0.00773919
2790	0.00705126
2802	0.00791117
2814	0.0108349
2826	0.0178861
2838	0.0414477
2850	0.126923
2862	0.129846
2874	0.0710286
2886	0.0847871
2898	0.15358
2910	0.209474
2922	0.146013
2934	0.220653
2946	0.287382
2958	0.47639
2970	0.28291
2982	0.11798
2994	0.117808
3006	0.124859
3018	0.100094
3030	0.178345
3042	0.359614
3054	0.0732643
3066	0.0409317
3078	0.037836
3090	0.0245934
3102	0.0204659
3114	0.0163383
3126	0.0132426
3138	0.0101469
3150	0.00739523
3162	0.00601937
3174	0.00515946
3186	0.00447153
3198	0.00447153
3210	0.00361162
3222	0.00292369
3234	0.00240775
3246	0.00257973
3258	0.00240775
3270	0.00206378
3282	0.00292369
3294	0.00429955
3306	0.00343964
3318	0.00292369
3330	0.00326766
3342	0.00361162
3354	0.00275171
3366	0.00292369
3378	0.00257973
3390	0.00240775
3402	0.00257973
3414	0.00292369
3426	0.00326766
3438	0.00326766
3450	0.00412757
3462	0.00550342
3474	0.00894306
3486	0.0144465
3498	0.0144465
3510	0.00945901
3522	0.00464351
3534	0.00257973
3546	0.0018918
3558	0.00154784
3570	0.00223577
3582	0.00275171
3594	0.00275171
3606	0.00257973
3618	0.00257973
3630	0.00343964
3642	0.00240775
3654	0.00326766
3666	0.0018918
3678	0.00326766
3690	0.00275171
3702	0.00309568
3714	0.00395559
3726	0.00361162
3738	0.00326766
3750	0.00275171
3762	0.00206378
3774	0.00206378
3786	0.00171982
3798	0.00240775
3810	0.00223577
3822	0.00326766
3834	0.00257973
3846	0.0018918
3858	0.00412757
3870	0.00309568
3882	0.00275171
3894	0.00326766
3906	0.00429955
3918	0.00223577
3930	0.00343964
3942	0.00412757
3954	0.00395559
3966	0.00309568
