Infrared Spectrum: Pyrrolidine, 1-phenyl-2-phenylimino-,
Formula: C 16 H 16 N 2
CAS: 7561-79-7
Origin: Sadtler Research Labs Under US-EPA Contract
1/CM	ABSORBANCE
450	0.0161614
462	0.00930298
474	0.0116797
486	0.017859
498	0.0304893
510	0.0283164
522	0.0198962
534	0.0144638
546	0.00651888
558	0.00054324
570	0.00237667
582	0.00237667
594	0.00502497
606	0.00726583
618	0.0143959
630	0.0118834
642	0.0234272
654	0.0292671
666	0.0283843
678	0.0461075
690	0.1572
702	0.0856961
714	0.0517436
726	0.032866
738	0.0330697
750	0.122908
762	0.0624047
774	0.0716398
786	0.0334772
798	0.0095067
810	0.0139884
822	0.0258039
834	0.0261434
846	0.0222049
858	0.017859
870	0.0100499
882	0.0120192
894	0.0298782
906	0.0186739
918	0.0095746
930	0.0126982
942	0.0167725
954	0.0118155
966	0.00760536
978	0.00903136
990	0.00916717
1002	0.0130378
1014	0.0201678
1026	0.0393849
1038	0.0296066
1050	0.0158898
1062	0.0283843
1074	0.0325944
1086	0.027909
1098	0.057923
1110	0.0596206
1122	0.0282485
1134	0.0200999
1146	0.0252607
1158	0.0382305
1170	0.0615898
1182	0.0615898
1194	0.150477
1206	0.313449
1218	0.101518
1230	0.0681087
1242	0.0490274
1254	0.0567007
1266	0.0648493
1278	0.0792451
1290	0.139002
1302	0.424542
1314	0.236581
1326	0.147218
1338	0.0499781
1350	0.0387058
1362	0.0391133
1374	0.0774796
1386	0.25186
1398	0.397855
1410	0.103759
1422	0.0405393
1434	0.0327981
1446	0.0376873
1458	0.0748992
1470	0.07293
1482	0.180627
1494	0.354125
1506	0.182257
1518	0.0372798
1530	0.0236988
1542	0.0311005
1554	0.0367366
1566	0.0610466
1578	0.156046
1590	0.400911
1602	0.262996
1614	0.0898383
1626	0.12155
1638	0.255459
1650	0.386651
1662	0.603675
1674	0.465353
1686	0.0963572
1698	0.0451568
1710	0.03144
1722	0.0306931
1734	0.025736
1746	0.0123587
1758	0.00638307
1770	0.00916717
1782	0.00767326
1794	0.0041422
1806	0.00081486
1818	0.00054324
1830	0.00258039
1842	0.00482125
1854	0.00617935
1866	0.00536449
1878	0.00129019
1890	0.001426
1902	0.00230877
1914	0.00617935
1926	0.00977832
1938	0.00692631
1950	0.00353106
1962	0.000611145
1974	0.00027162
1986	0.000339525
1998	0.00149391
2010	0.00162972
2022	0.00380268
2034	0.00353106
2046	0.00183343
2058	0.00101857
2070	0.00101857
2082	0.00149391
2094	0.00210505
2106	0.00176553
2118	0.00122229
2130	0.000611145
2142	0.000475335
2154	0.00027162
2166	0.000339525
2178	0
2190	0.000203715
2202	0.000475335
2214	0.000339525
2226	0.00013581
2238	0.00081486
2250	0.00054324
2262	0.000746955
2274	0.00156181
2286	0.00258039
2298	0.00454963
2310	0.00719793
2322	0.00760536
2334	0.00536449
2346	0.00495706
2358	0.00611145
2370	0.00651888
2382	0.00570402
2394	0.00421011
2406	0.00488916
2418	0.00529659
2430	0.00475335
2442	0.00380268
2454	0.00400639
2466	0.00339525
2478	0.00366687
2490	0.00434592
2502	0.00529659
2514	0.0055003
2526	0.00495706
2538	0.00516078
2550	0.00577192
2562	0.00509287
2574	0.00475335
2586	0.00536449
2598	0.00590773
2610	0.00475335
2622	0.00366687
2634	0.00291991
2646	0.0027162
2658	0.00319153
2670	0.00353106
2682	0.00312363
2694	0.00400639
2706	0.00346315
2718	0.00387058
2730	0.00434592
2742	0.00488916
2754	0.00590773
2766	0.00794488
2778	0.00930298
2790	0.0102537
2802	0.00977832
2814	0.0102537
2826	0.0131736
2838	0.0209147
2850	0.0289954
2862	0.0604354
2874	0.0551389
2886	0.0418974
2898	0.0306252
2910	0.0206431
2922	0.00787698
2934	0.0166367
2946	0.0366008
2958	0.0488237
2970	0.0516757
2982	0.0770722
2994	0.0438666
3006	0.0266188
3018	0.0389096
3030	0.0581267
3042	0.0596885
3054	0.0630837
3066	0.0888197
3078	0.0848812
3090	0.045768
3102	0.0280448
3114	0.0147354
3126	0.00726583
3138	0.00461754
3150	0.00346315
3162	0.00264829
3174	0.00183343
3186	0.00183343
3198	0.00230877
3210	0.00203715
3222	0.00169762
3234	0.00169762
3246	0.00196924
3258	0.00129019
3270	0.00217296
3282	0.00196924
3294	0.00230877
3306	0.00305572
3318	0.001426
3330	0.0013581
3342	0.00115438
3354	0.00122229
3366	0.00169762
3378	0.00115438
3390	0.0013581
3402	0.00183343
3414	0.00129019
3426	0.000882765
3438	0.00183343
3450	0.000611145
3462	0.00169762
3474	0.00115438
3486	0.00156181
3498	0.00162972
3510	0.00176553
3522	0.00156181
3534	0.000882765
3546	0.00108648
3558	0.00122229
3570	0.0013581
3582	0.00190134
3594	0.001426
3606	0.00149391
3618	0.00251248
3630	0.00162972
3642	0.00176553
3654	0.00176553
3666	0.00251248
3678	0.00176553
3690	0.00224086
3702	0.00196924
3714	0.00230877
3726	0.0013581
3738	0.0027841
3750	0.00244458
3762	0.00251248
3774	0.001426
3786	0.00264829
3798	0.00224086
3810	0.00210505
3822	0.000882765
3834	0.00210505
3846	0.00196924
3858	0.00115438
3870	0.0027841
3882	0.00230877
3894	0.00224086
3906	0.0027162
3918	0.00156181
3930	0.00353106
3942	0.0027841
3954	0.00244458
3966	0.00305572
