Infrared Spectrum: Benzeneethanol, 4-fluoro-
Formula: C 8 H 9 F O
CAS: 7589-27-7
Origin: Sadtler Research Labs Under US-EPA Contract
1/CM	ABSORBANCE
450	0
462	0.00962701
474	0.0202988
486	0.0310452
498	0.0500754
510	0.0382095
522	0.0252989
534	0.0473142
546	0.0788072
558	0.0621651
570	0.0241795
582	0.00761206
594	0.00604487
606	0.00410454
618	0.00410454
630	0.00470156
642	0.0042538
654	0.0037314
666	0.00395528
678	0.00574636
690	0.0120897
702	0.0297766
714	0.0301497
726	0.0247765
738	0.0171644
750	0.0202988
762	0.0211197
774	0.0291049
786	0.021866
798	0.0371647
810	0.120151
822	0.253437
834	0.210675
846	0.116942
858	0.050747
870	0.0205973
882	0.00768668
894	0.00492545
906	0.00582098
918	0.0141047
930	0.0275377
942	0.0317169
954	0.03209
966	0.0366423
978	0.0441051
990	0.0546277
1002	0.0764191
1014	0.107166
1026	0.123957
1038	0.260153
1050	0.349483
1062	0.252989
1074	0.130674
1086	0.0887327
1098	0.0827625
1110	0.0517918
1122	0.0362692
1134	0.0370155
1146	0.0406723
1158	0.140674
1170	0.080449
1182	0.0444037
1194	0.0473142
1206	0.0685085
1218	0.150375
1230	0.456723
1242	0.672771
1254	0.116867
1266	0.068807
1278	0.0509709
1290	0.0417171
1302	0.0476127
1314	0.0490306
1326	0.0481351
1338	0.0434335
1350	0.0488813
1362	0.043732
1374	0.0582098
1386	0.0791057
1398	0.052165
1410	0.0416424
1422	0.0404484
1434	0.0398514
1446	0.0448514
1458	0.0257467
1470	0.0385827
1482	0.0514187
1494	0.0727623
1506	0.433439
1518	0.668219
1530	0.110897
1542	0.019851
1554	0.0153734
1566	0.0191794
1578	0.0254481
1590	0.0540307
1602	0.109852
1614	0.130674
1626	0.0544784
1638	0.0276124
1650	0.0113435
1662	0.0170898
1674	0.0088061
1686	0.00462694
1698	0.00350752
1710	0.0135077
1722	0.0130599
1734	0.00462694
1746	0.0117166
1758	0.0205973
1770	0.013433
1782	0.011642
1794	0.00835834
1806	0.0129106
1818	0.0133584
1830	0.00835834
1842	0.0105972
1854	0.0157465
1866	0.0187316
1878	0.0295527
1890	0.0250004
1902	0.0168659
1914	0.0133584
1926	0.0135077
1938	0.0137316
1950	0.0125375
1962	0.011642
1974	0.0111196
1986	0.011642
1998	0.011642
2010	0.0117166
2022	0.00910462
2034	0.0103733
2046	0.0112688
2058	0.0135077
2070	0.0124629
2082	0.0114927
2094	0.00925387
2106	0.00791057
2118	0.00656726
2130	0.00582098
2142	0.00522396
2154	0.00492545
2166	0.00462694
2178	0.00462694
2190	0.00395528
2202	0.00358214
2214	0.00313438
2226	0.00410454
2238	0.00395528
2250	0.00492545
2262	0.00529859
2274	0.00462694
2286	0.00477619
2298	0.00529859
2310	0.00626875
2322	0.00805982
2334	0.0079852
2346	0.00828371
2358	0.0093285
2370	0.00716429
2382	0.0069404
2394	0.00738817
2406	0.00522396
2418	0.00455231
2430	0.00440305
2442	0.00500008
2454	0.00626875
2466	0.00828371
2478	0.00679115
2490	0.00462694
2502	0.00462694
2514	0.00440305
2526	0.00440305
2538	0.00417917
2550	0.00447768
2562	0.00477619
2574	0.00552247
2586	0.00455231
2598	0.00440305
2610	0.0037314
2622	0.00395528
2634	0.00410454
2646	0.00485082
2658	0.00537322
2670	0.0055971
2682	0.0055971
2694	0.00567173
2706	0.00619412
2718	0.00671652
2730	0.00858222
2742	0.00977627
2754	0.0105972
2766	0.0105972
2778	0.0105972
2790	0.0118659
2802	0.0126868
2814	0.0140301
2826	0.0163435
2838	0.022463
2850	0.0364185
2862	0.0599263
2874	0.107166
2886	0.137689
2898	0.100599
2910	0.0946283
2922	0.134554
2934	0.168137
2946	0.170152
2958	0.153808
2970	0.113061
2982	0.0504485
2994	0.0258959
3006	0.0290303
3018	0.0267168
3030	0.0279855
3042	0.0649264
3054	0.0641055
3066	0.0298512
3078	0.0297019
3090	0.0211944
3102	0.0125375
3114	0.0130599
3126	0.0129106
3138	0.00902999
3150	0.00537322
3162	0.00455231
3174	0.00417917
3186	0.00447768
3198	0.0042538
3210	0.00462694
3222	0.00447768
3234	0.00417917
3246	0.00485082
3258	0.00470156
3270	0.00462694
3282	0.00417917
3294	0.00447768
3306	0.00485082
3318	0.00440305
3330	0.00500008
3342	0.00529859
3354	0.00529859
3366	0.00574636
3378	0.00529859
3390	0.00500008
3402	0.00552247
3414	0.00500008
3426	0.00514933
3438	0.00522396
3450	0.00485082
3462	0.00552247
3474	0.00477619
3486	0.00417917
3498	0.0050747
3510	0.0042538
3522	0.00432842
3534	0.00402991
3546	0.00328363
3558	0.00395528
3570	0.00529859
3582	0.00544784
3594	0.00462694
3606	0.00679115
3618	0.00910462
3630	0.0303736
3642	0.0347766
3654	0.0386573
3666	0.0569412
3678	0.045747
3690	0.0184331
3702	0.0100002
3714	0.00597024
3726	0.00574636
3738	0.00485082
3750	0.00395528
3762	0.00328363
3774	0.00485082
3786	0.00291049
3798	0.00283586
3810	0.00358214
3822	0.00440305
3834	0.00447768
3846	0.00462694
3858	0.00679115
3870	0.00395528
3882	0.00656726
3894	0.00529859
3906	0.0055971
3918	0.00679115
3930	0.00514933
3942	0.00470156
3954	0.00402991
3966	0.003209
