Infrared Spectrum: Acetamide, N,N-bis(1-methylethyl)-
Formula: C 8 H 17 N O
CAS: 759-22-8
Origin: Sadtler Research Labs Under US-EPA Contract
1/CM	ABSORBANCE
450	0.0120621
462	0.0103939
474	0.0174515
486	0.0298986
498	0.0301552
510	0.0373411
522	0.0225843
534	0.00911072
546	0.0076992
558	0.00885408
570	0.012447
582	0.0169382
594	0.0562042
606	0.0913638
618	0.0433722
630	0.0118054
642	0.00526112
654	0.00782752
666	0.0200179
678	0.0171949
690	0.00243808
702	0.00295136
714	0.00282304
726	0.0012832
738	0.0012832
750	0
762	0.00102656
774	0.00166816
786	0.00141152
798	0.00076992
810	0.00025664
822	0.00076992
834	0.0019248
846	0.00500448
858	0.00667264
870	0.00526112
882	0.00615936
894	0.00372128
906	0.00295136
918	0.0057744
930	0.0148851
942	0.0141152
954	0.00821248
966	0.00680096
978	0.00808416
990	0.0166816
1002	0.0373411
1014	0.0809699
1026	0.0718592
1038	0.0744256
1050	0.0710893
1062	0.0225843
1074	0.0121904
1086	0.0115488
1098	0.016425
1110	0.0338765
1122	0.0822531
1134	0.145387
1146	0.12755
1158	0.129475
1170	0.117028
1182	0.044912
1194	0.0419606
1206	0.107789
1218	0.223918
1230	0.152957
1242	0.0365712
1254	0.0242525
1266	0.0296419
1278	0.0415757
1290	0.0981648
1302	0.240215
1314	0.586551
1326	0.556524
1338	0.129218
1350	0.122417
1362	0.223277
1374	0.332734
1386	0.28564
1398	0.119081
1410	0.083023
1422	0.22533
1434	0.45143
1446	0.331322
1458	0.16117
1470	0.121647
1482	0.0890541
1494	0.0396509
1506	0.0191197
1518	0.0161683
1530	0.0182214
1542	0.0141152
1554	0.0139869
1566	0.013217
1578	0.013217
1590	0.0139869
1602	0.0175798
1614	0.0213011
1626	0.0351597
1638	0.070191
1650	0.155139
1662	0.604772
1674	1.2832
1686	0.567431
1698	0.0949568
1710	0.0309251
1722	0.0168099
1734	0.00782752
1746	0.00667264
1758	0.00615936
1770	0.00500448
1782	0.00757088
1794	0.00628768
1806	0.00603104
1818	0.00538944
1830	0.00423456
1842	0.00269472
1854	0.0025664
1866	0.00205312
1878	0.00282304
1890	0.00243808
1902	0.0025664
1914	0.00089824
1926	0.00038496
1938	0.00051328
1950	0.00102656
1962	0.00153984
1974	0.0019248
1986	0.00307968
1998	0.00205312
2010	0.00076992
2022	0.00076992
2034	0.00115488
2046	0.00089824
2058	0.0012832
2070	0.00089824
2082	0.00076992
2094	0.00179648
2106	0.00243808
2118	0.00141152
2130	0.00038496
2142	0.00012832
2154	0.00012832
2166	0.00012832
2178	0.00025664
2190	0.00051328
2202	0.00102656
2214	0.00089824
2226	0.00102656
2238	0.00153984
2250	0.00166816
2262	0.0012832
2274	0.00153984
2286	0.00218144
2298	0.00333632
2310	0.00333632
2322	0.0012832
2334	0.00102656
2346	0.00038496
2358	0.00076992
2370	0.00012832
2382	0.0019248
2394	0.00115488
2406	0.00076992
2418	0.00025664
2430	0.00038496
2442	0.00102656
2454	0.00115488
2466	0.00102656
2478	0.00141152
2490	0.00179648
2502	0.0019248
2514	0.00166816
2526	0.00102656
2538	0.00102656
2550	0.00089824
2562	0.00038496
2574	0.00038496
2586	0.0006416
2598	0.00153984
2610	0.00333632
2622	0.00474784
2634	0.003208
2646	0.00218144
2658	0.00179648
2670	0.00218144
2682	0.0025664
2694	0.00295136
2706	0.00333632
2718	0.00474784
2730	0.00718592
2742	0.00718592
2754	0.0070576
2766	0.00757088
2778	0.00757088
2790	0.00782752
2802	0.00988064
2814	0.0127037
2826	0.0153984
2838	0.0174515
2850	0.0219427
2862	0.0369562
2874	0.0799434
2886	0.124727
2898	0.116515
2910	0.113178
2922	0.143205
2934	0.237905
2946	0.269215
2958	0.245348
2970	0.470934
2982	0.499165
2994	0.234697
3006	0.217887
3018	0.152188
3030	0.0538944
3042	0.0298986
3054	0.0230976
3066	0.0187347
3078	0.0157834
3090	0.0147568
3102	0.0142435
3114	0.0148851
3126	0.0130886
3138	0.0112922
3150	0.0103939
3162	0.0106506
3174	0.00988064
3186	0.00936736
3198	0.0083408
3210	0.00692928
3222	0.0051328
3234	0.00359296
3246	0.00282304
3258	0.00243808
3270	0.00205312
3282	0.0025664
3294	0.00333632
3306	0.00487616
3318	0.00859744
3330	0.0110355
3342	0.00718592
3354	0.0025664
3366	0.0012832
3378	0.00141152
3390	0.00230976
3402	0.00179648
3414	0.00230976
3426	0.00153984
3438	0.00166816
3450	0.00218144
3462	0.0025664
3474	0.00230976
3486	0.00153984
3498	0.00230976
3510	0.00102656
3522	0.00102656
3534	0.00141152
3546	0.00102656
3558	0.00089824
3570	0.00153984
3582	0.00166816
3594	0.0012832
3606	0.0012832
3618	0.00025664
3630	0.00102656
3642	0.00115488
3654	0.00025664
3666	0.00025664
3678	0.00038496
3690	0.0012832
3702	0
3714	0.0006416
3726	0.00115488
3738	0.00153984
3750	0.00076992
3762	0.00076992
3774	0.0012832
3786	0.0012832
3798	0.00141152
3810	0.00205312
3822	0.00230976
3834	0.00153984
3846	0.00243808
3858	0.00295136
3870	0.00153984
3882	0.00179648
3894	0.00230976
3906	0.003208
3918	0.00410624
3930	0.00141152
3942	0.0019248
3954	0.0038496
3966	0.0019248
