Infrared Spectrum: Diethyl tert-butylmalonate
Formula: C 11 H 20 O 4
CAS: 759-24-0
Origin: Sadtler Research Labs Under US-EPA Contract
1/CM	ABSORBANCE
450	0
462	0.0408769
474	0.0215661
486	0.028238
498	0.0215191
510	0.018794
522	0.015693
534	0.0170086
546	0.0154111
558	0.0123571
570	0.021942
582	0.024996
594	0.0201566
606	0.0269694
618	0.0224118
630	0.0172435
642	0.0205794
654	0.0212842
666	0.0174314
678	0.021801
690	0.0199686
702	0.0236804
714	0.0258418
726	0.0204385
738	0.012545
750	0.0316679
762	0.028097
774	0.021989
786	0.0211432
798	0.0286608
810	0.0244792
822	0.0241033
834	0.0238684
846	0.0229287
858	0.0353327
870	0.0323727
882	0.0244792
894	0.0239154
906	0.0206734
918	0.0208144
930	0.024902
942	0.0273453
954	0.031433
966	0.0330774
978	0.031386
990	0.0279091
1002	0.0316679
1014	0.0454815
1026	0.0933592
1038	0.151762
1050	0.243335
1062	0.12935
1074	0.0724039
1086	0.0734376
1098	0.108723
1110	0.127658
1122	0.187564
1134	0.353891
1146	0.411542
1158	0.240939
1170	0.141613
1182	0.132545
1194	0.193719
1206	0.258558
1218	0.2618
1230	0.314659
1242	0.272184
1254	0.200297
1266	0.15444
1278	0.123571
1290	0.106045
1302	0.124322
1314	0.197243
1326	0.189772
1338	0.100783
1350	0.0573687
1362	0.0654501
1374	0.142036
1386	0.065826
1398	0.0570868
1410	0.0498981
1422	0.0309631
1434	0.0331714
1446	0.0459043
1458	0.0516365
1470	0.071934
1482	0.0701486
1494	0.0416287
1506	0.0230696
1518	0.0172905
1530	0.0152701
1542	0.0151762
1554	0.0154111
1566	0.0147533
1578	0.0146123
1590	0.015505
1602	0.0162098
1614	0.0159279
1626	0.0168676
1638	0.0180422
1650	0.0184181
1662	0.0199216
1674	0.0194048
1686	0.0217071
1698	0.0291307
1710	0.0479247
1722	0.0836333
1734	0.193437
1746	0.455191
1758	0.313249
1770	0.282709
1782	0.105011
1794	0.040736
1806	0.0248081
1818	0.018747
1830	0.0161159
1842	0.0145184
1854	0.0132028
1866	0.0114643
1878	0.0127799
1890	0.0134377
1902	0.0135317
1914	0.0129209
1926	0.0119342
1938	0.0116053
1950	0.0110885
1962	0.0106186
1974	0.0106656
1986	0.0105716
1998	0.0111354
2010	0.0112294
2022	0.0106186
2034	0.0102427
2046	0.00944399
2058	0.0100548
2070	0.00996082
2082	0.0101018
2094	0.0101488
2106	0.0101018
2118	0.00925604
2130	0.00916208
2142	0.0084573
2154	0.00888016
2166	0.00864524
2178	0.00742363
2190	0.00794046
2202	0.00803443
2214	0.00803443
2226	0.00761157
2238	0.0075176
2250	0.00789348
2262	0.00794046
2274	0.0078465
2286	0.00761157
2298	0.00723569
2310	0.00620202
2322	0.00620202
2334	0.00714172
2346	0.00643694
2358	0.00653091
2370	0.00803443
2382	0.00723569
2394	0.00770554
2406	0.00718871
2418	0.00742363
2430	0.00779951
2442	0.00761157
2454	0.00737664
2466	0.00704775
2478	0.00681282
2490	0.00634297
2502	0.00653091
2514	0.00634297
2526	0.00638996
2538	0.00624901
2550	0.00624901
2562	0.00643694
2574	0.00643694
2586	0.00648393
2598	0.00690679
2610	0.00671886
2622	0.00643694
2634	0.00643694
2646	0.00653091
2658	0.00700076
2670	0.00681282
2682	0.00685981
2694	0.00718871
2706	0.00700076
2718	0.00794046
2730	0.00892715
2742	0.00958494
2754	0.00897413
2766	0.00986685
2778	0.00911509
2790	0.00991383
2802	0.0109475
2814	0.0112764
2826	0.0130148
2838	0.0134847
2850	0.0173844
2862	0.0243852
2874	0.0492873
2886	0.0748941
2898	0.0673295
2910	0.0840562
2922	0.097212
2934	0.101394
2946	0.141613
2958	0.155661
2970	0.219796
2982	0.200673
2994	0.175865
3006	0.0980577
3018	0.0461863
3030	0.025043
3042	0.0172435
3054	0.0141425
3066	0.0120282
3078	0.0115583
3090	0.0104307
3102	0.0102427
3114	0.0100548
3126	0.00883318
3138	0.0087862
3150	0.00841031
3162	0.00826936
3174	0.00873921
3186	0.00920906
3198	0.00892715
3210	0.00831634
3222	0.00897413
3234	0.00873921
3246	0.00756458
3258	0.00789348
3270	0.00667187
3282	0.00732966
3294	0.00718871
3306	0.00667187
3318	0.00779951
3330	0.00685981
3342	0.00653091
3354	0.00714172
3366	0.00695378
3378	0.00723569
3390	0.00643694
3402	0.0075176
3414	0.00671886
3426	0.00718871
3438	0.00653091
3450	0.00770554
3462	0.00803443
3474	0.00958494
3486	0.00949097
3498	0.00902112
3510	0.00855127
3522	0.00615503
3534	0.00709473
3546	0.0084573
3558	0.00685981
3570	0.00667187
3582	0.00667187
3594	0.00714172
3606	0.00826936
3618	0.00732966
3630	0.00747061
3642	0.00794046
3654	0.00615503
3666	0.00728267
3678	0.00756458
3690	0.00794046
3702	0.00714172
3714	0.00775252
3726	0.00667187
3738	0.00930303
3750	0.00577915
3762	0.00742363
3774	0.00629599
3786	0.00634297
3798	0.00709473
3810	0.00718871
3822	0.00648393
3834	0.00812841
3846	0.00850429
3858	0.00615503
3870	0.00573217
3882	0.00732966
3894	0.00690679
3906	0.00873921
3918	0.0078465
3930	0.00723569
3942	0.00704775
3954	0.00822238
3966	0.00545026
