Infrared Spectrum: Ethane, pentachloro-
Formula: C 2 H Cl 5
CAS: 76-01-7
Origin: Sadtler Research Labs Under US-EPA Contract
1/CM	ABSORBANCE
450	0.00053196
462	0.0013299
474	0.00257114
486	0.00673816
498	0.0075361
510	0.00984126
522	0.00860002
534	0.00744744
546	0.0140969
558	0.0194165
570	0.0486743
582	0.133788
594	0.062594
606	0.00336908
618	0.008866
630	0.00744744
642	0.0066495
654	0.00744744
666	0.00195052
678	0.00682682
690	0.00611754
702	0.017998
714	0.093625
726	0.268817
738	0.190974
750	0.0601115
762	0.27059
774	0.870819
786	0.491176
798	0.0478764
810	0.110027
822	0.319176
834	0.208085
846	0.0264207
858	0.0242928
870	0.0093093
882	0.0039897
894	0.00718146
906	0.00913198
918	0.00762476
930	0.00682682
942	0.00771342
954	0.00514228
966	0.00434434
978	0.00416702
990	0.00939796
1002	0.0186186
1014	0.0328929
1026	0.031297
1038	0.00780208
1050	0.00700414
1062	0.00540826
1074	0.00301444
1086	0.00301444
1098	0.0035464
1110	0.0031031
1122	0.0026598
1134	0.00292578
1146	0.0031031
1158	0.00372372
1170	0.0053196
1182	0.00700414
1194	0.00877734
1206	0.0391877
1218	0.0418475
1230	0.00425568
1242	0.0066495
1254	0.017998
1266	0.0104619
1278	0.00292578
1290	0.0026598
1302	0.00257114
1314	0.00257114
1326	0.00257114
1338	0.00292578
1350	0.0026598
1362	0.00283712
1374	0.00274846
1386	0.00283712
1398	0.00319176
1410	0.00336908
1422	0.00328042
1434	0.00292578
1446	0.00283712
1458	0.00159588
1470	0.00203918
1482	0.00283712
1494	0.00257114
1506	0.0004433
1518	0.00168454
1530	0.00336908
1542	0.0022165
1554	0.00203918
1566	0.00345774
1578	0.00363506
1590	0.0031031
1602	0.00328042
1614	0.00301444
1626	0.00283712
1638	0.00283712
1650	0.00168454
1662	0.00168454
1674	0.00248248
1686	0.00328042
1698	0.0013299
1710	0.00212784
1722	0.0031031
1734	0.00141856
1746	0.00239382
1758	0.0031031
1770	0.00274846
1782	0.0026598
1794	0.00319176
1806	0.00319176
1818	0.00257114
1830	0.0022165
1842	0.00248248
1854	0.0022165
1866	0.00283712
1878	0.0017732
1890	0.0026598
1902	0.00195052
1914	0.00283712
1926	0.00292578
1938	0.00248248
1950	0.00239382
1962	0.00301444
1974	0.00301444
1986	0.00239382
1998	0.00257114
2010	0.0022165
2022	0.00257114
2034	0.00257114
2046	0.00257114
2058	0.00319176
2070	0.00328042
2082	0.00372372
2094	0.00336908
2106	0.00381238
2118	0.00390104
2130	0.00434434
2142	0.00434434
2154	0.004433
2166	0.00461032
2178	0.0039897
2190	0.0035464
2202	0.00257114
2214	0.00301444
2226	0.0031031
2238	0.0031031
2250	0.0031031
2262	0.0031031
2274	0.00372372
2286	0.00336908
2298	0.00274846
2310	0.00159588
2322	0.00026598
2334	8.866e-05
2346	0.00257114
2358	8.866e-05
2370	0.00363506
2382	0.00540826
2394	0.00434434
2406	0.0048763
2418	0.004433
2430	0.00425568
2442	0.00478764
2454	0.00478764
2466	0.00523094
2478	0.00469898
2490	0.00496496
2502	0.0057629
2514	0.00478764
2526	0.00372372
2538	0.00292578
2550	0.00372372
2562	0.0026598
2574	0.00274846
2586	0.00425568
2598	0.00461032
2610	0.00567424
2622	0.00514228
2634	0.00469898
2646	0.00478764
2658	0.00523094
2670	0.00567424
2682	0.0062062
2694	0.0062062
2706	0.0057629
2718	0.00567424
2730	0.00549692
2742	0.00540826
2754	0.00478764
2766	0.00452166
2778	0.00514228
2790	0.0062062
2802	0.00549692
2814	0.00585156
2826	0.00611754
2838	0.00611754
2850	0.00540826
2862	0.00549692
2874	0.00540826
2886	0.00647218
2898	0.0070928
2910	0.00611754
2922	0.00594022
2934	0.00629486
2946	0.00602888
2958	0.00540826
2970	0.00602888
2982	0.00647218
2994	0.0155155
3006	0.0256227
3018	0.00824538
3030	0.00594022
3042	0.00496496
3054	0.00496496
3066	0.0048763
3078	0.00523094
3090	0.0053196
3102	0.00594022
3114	0.00656084
3126	0.00567424
3138	0.0057629
3150	0.00434434
3162	0.00478764
3174	0.00540826
3186	0.00496496
3198	0.00549692
3210	0.0048763
3222	0.0053196
3234	0.00540826
3246	0.00434434
3258	0.00434434
3270	0.0048763
3282	0.004433
3294	0.00434434
3306	0.0048763
3318	0.00434434
3330	0.0053196
3342	0.00416702
3354	0.00416702
3366	0.00469898
3378	0.00372372
3390	0.00478764
3402	0.00345774
3414	0.00434434
3426	0.00381238
3438	0.00425568
3450	0.00514228
3462	0.00319176
3474	0.00230516
3486	0.0022165
3498	0.0017732
3510	0.00434434
3522	0.00195052
3534	0.0039897
3546	0.0039897
3558	0.00274846
3570	0.00407836
3582	0.00115258
3594	0.00026598
3606	0.00115258
3618	0.00150722
3630	0.00248248
3642	0.00239382
3654	0.0039897
3666	0.00150722
3678	0.00141856
3690	0.00079794
3702	0.00062062
3714	0.0026598
3726	0.00150722
3738	0.00292578
3750	0.00319176
3762	0.00425568
3774	0.00257114
3786	0.00203918
3798	0.00115258
3810	0.0017732
3822	0.00168454
3834	0.00168454
3846	0.00292578
3858	0.00336908
3870	0.00283712
3882	8.866e-05
3894	0.0008866
3906	0.00150722
3918	0.0017732
3930	0.00212784
3942	0.00070928
3954	0.00070928
3966	0.0017732
