Infrared Spectrum: Acetic acid, trifluoro-
Formula: C 2 H F 3 O 2
CAS: 76-05-1
Origin: Sadtler Research Labs Under US-EPA Contract
1/CM	ABSORBANCE
450	0.00250488
462	0.00542724
474	0.00935155
486	0.0115224
498	0.0158642
510	0.0130254
522	0.0129419
534	0.021709
546	0.0378237
558	0.0645424
570	0.0996107
582	0.108294
594	0.0837465
606	0.0413305
618	0.0195381
630	0.0131924
642	0.0232954
654	0.101782
666	0.136265
678	0.10771
690	0.0171167
702	0.0063457
714	0.00350683
726	0.00267187
738	0.00701366
750	0.0101865
762	0.0256333
774	0.0408295
786	0.0329809
798	0.0302256
810	0.0151963
822	0.00868358
834	0.00526025
846	0.0020039
858	0.00250488
870	0.00192041
882	0.000500976
894	0.00108545
906	0.000667968
918	0.000918456
930	0.00141943
942	0.00083496
954	0.00158642
966	0.000751464
978	0.00158642
990	0.00141943
1002	0.00250488
1014	0.00400781
1026	0.00559423
1038	0.00592822
1050	0.00684667
1062	0.010103
1074	0.0212915
1086	0.0485112
1098	0.136432
1110	0.359367
1122	0.535794
1134	0.466659
1146	0.192208
1158	0.136432
1170	0.187365
1182	0.343586
1194	0.783693
1206	0.83496
1218	0.375565
1230	0.24623
1242	0.251657
1254	0.185194
1266	0.0964379
1278	0.0345673
1290	0.0154468
1302	0.010103
1314	0.00918456
1326	0.010938
1338	0.0174507
1350	0.0244643
1362	0.0278042
1374	0.0273867
1386	0.03081
1398	0.0399946
1410	0.0474257
1422	0.0423325
1434	0.0268022
1446	0.0120234
1458	0.00901757
1470	0.00317285
1482	0.00183691
1494	0.00192041
1506	0.00592822
1518	0.00233789
1530	0.00192041
1542	0.00851659
1554	0.00509326
1566	0.0042583
1578	0.00576122
1590	0.00242138
1602	0.00183691
1614	0.0020874
1626	0.00308935
1638	0.00450878
1650	0.00384082
1662	0.0040913
1674	0.00592822
1686	0.0100195
1698	0.0082661
1710	0.00400781
1722	0.00333984
1734	0.00534374
1746	0.00283886
1758	0.00534374
1770	0.0144448
1782	0.0363208
1794	0.0823271
1806	0.188367
1818	0.291735
1830	0.338493
1842	0.22594
1854	0.0782358
1866	0.0298081
1878	0.00876708
1890	0.0041748
1902	0.00275537
1914	0.00292236
1926	0.00283886
1938	0.00141943
1950	0.000918456
1962	0.000918456
1974	0.000918456
1986	0.00158642
1998	0.00158642
2010	0.00100195
2022	0.00083496
2034	0.000500976
2046	0.000584472
2058	0.000918456
2070	0.00083496
2082	0.00041748
2094	0.00041748
2106	0.000250488
2118	0
2130	0
2142	0.00041748
2154	0.000250488
2166	0.000500976
2178	0.00041748
2190	0.000500976
2202	0.00125244
2214	0.00192041
2226	0.00233789
2238	0.00233789
2250	0.00192041
2262	0.00116894
2274	0.000584472
2286	0.000500976
2298	0.00141943
2310	0.00242138
2322	0.0041748
2334	0.00542724
2346	0.00534374
2358	0.00734765
2370	0.0061787
2382	0.00359033
2394	0.00275537
2406	0.00233789
2418	0.00192041
2430	0.00192041
2442	0.00125244
2454	0.00133594
2466	0.00192041
2478	0.00233789
2490	0.00258838
2502	0.00283886
2514	0.00283886
2526	0.00292236
2538	0.0020874
2550	0.00083496
2562	0.00041748
2574	0.00041748
2586	0.00041748
2598	0.000918456
2610	0.00083496
2622	0.000918456
2634	0.00041748
2646	0.00041748
2658	0.00041748
2670	0.00041748
2682	0.000500976
2694	0.000500976
2706	0.00041748
2718	0.000500976
2730	0.00041748
2742	0.00041748
2754	0.000500976
2766	0.000500976
2778	0.00041748
2790	0.000584472
2802	0.000500976
2814	0.000667968
2826	0.000667968
2838	0.000667968
2850	0.000667968
2862	0.00083496
2874	0.000500976
2886	0.00041748
2898	0.000918456
2910	0.00100195
2922	0.00141943
2934	0.0020039
2946	0.0020874
2958	0.00150293
2970	0.00116894
2982	0.00116894
2994	0.00116894
3006	0.00125244
3018	0.00133594
3030	0.00133594
3042	0.00141943
3054	0.00150293
3066	0.00150293
3078	0.00116894
3090	0.00150293
3102	0.00158642
3114	0.00116894
3126	0.00100195
3138	0.00125244
3150	0.00125244
3162	0.00125244
3174	0.00141943
3186	0.00141943
3198	0.00141943
3210	0.00150293
3222	0.00108545
3234	0.00116894
3246	0.00175342
3258	0.00125244
3270	0.000751464
3282	0.000250488
3294	0.00125244
3306	0.00116894
3318	0.00083496
3330	0.00083496
3342	0.00133594
3354	0.00133594
3366	0.000918456
3378	0.000667968
3390	0.00116894
3402	0.00133594
3414	0.000918456
3426	0.00083496
3438	0.00175342
3450	0.00141943
3462	0.000584472
3474	0.00116894
3486	0.00100195
3498	0.000500976
3510	0.00083496
3522	0.00108545
3534	0.0020039
3546	0.00317285
3558	0.0232119
3570	0.123407
3582	0.176177
3594	0.111384
3606	0.0207905
3618	0.0145283
3630	0.0137768
3642	0.00801562
3654	0.00442529
3666	0.00350683
3678	0.00526025
3690	0.00467578
3702	0.00267187
3714	0.00367382
3726	0.00367382
3738	0.00434179
3750	0.00567773
3762	0.0042583
3774	0.00375732
3786	0.00400781
3798	0.00442529
3810	0.00450878
3822	0.00651269
3834	0.0061787
3846	0.00567773
3858	0.00584472
3870	0.0062622
3882	0.00534374
3894	0.00500976
3906	0.00542724
3918	0.00534374
3930	0.00484277
3942	0.00534374
3954	0.00133594
3966	0.00166992
