Infrared Spectrum: Methane, trichloronitro-
Formula: C Cl 3 N O 2
CAS: 76-06-2
Origin: Sadtler Research Labs Under US-EPA Contract
1/CM	ABSORBANCE
450	0.0309471
462	0.00860996
474	0.00966589
486	0.00503601
498	0.00869118
510	0.00324904
522	0.00324904
534	0.00495479
546	0.00398007
558	0.00690421
570	0.0120214
582	0.00739157
594	0.00698544
606	0.00446743
618	0.00820383
630	0.0126713
642	0.0258299
654	0.0584827
666	0.101045
678	0.15368
690	0.137434
702	0.172118
714	0.191125
726	0.15238
738	0.128175
750	0.0313532
762	0.011128
774	0.0130774
786	0.0116965
798	0.0191693
810	0.0177885
822	0.0656306
834	0.235393
846	0.32133
858	0.464125
870	0.766611
882	0.666622
894	0.687334
906	0.522446
918	0.290058
930	0.0980398
942	0.0391509
954	0.0172199
966	0.00966589
978	0.0077977
990	0.00633563
1002	0.00527969
1014	0.00560459
1026	0.00430498
1038	0.00081226
1050	0.00268046
1062	0.0040613
1074	0.00316781
1086	0.00316781
1098	0.00422375
1110	0.00536092
1122	0.00747279
1134	0.00909731
1146	0.00674176
1158	0.0062544
1170	0.00446743
1182	0.00519846
1194	0.00503601
1206	0.00276168
1218	0.00527969
1230	0.00649808
1242	0.00536092
1254	0.00934099
1266	0.0291601
1278	0.0622191
1290	0.105431
1302	0.329859
1314	0.40946
1326	0.101857
1338	0.0630314
1350	0.117534
1362	0.0848812
1374	0.0182758
1386	0.0084475
1398	0.00901609
1410	0.00852873
1422	0.00560459
1434	0.00511724
1446	0.00292414
1458	0.00560459
1470	0.00365517
1482	0.00259923
1494	0.00454866
1506	0.01259
1518	0.0108843
1530	0.00974712
1542	0.0147019
1554	0.0160015
1566	0.029485
1578	0.081957
1590	0.213868
1602	0.455922
1614	0.75662
1626	0.771891
1638	0.488981
1650	0.17488
1662	0.0264797
1674	0.00804137
1686	0.00852873
1698	0.00674176
1710	0.00479233
1722	0.00649808
1734	0.0107218
1746	0.00860996
1758	0.00755402
1770	0.00682298
1782	0.00617318
1794	0.00958467
1806	0.017626
1818	0.0308659
1830	0.0332214
1842	0.0246927
1854	0.0116965
1866	0.00674176
1878	0.00284291
1890	0.00276168
1902	0.00333027
1914	0.00341149
1926	0.0021931
1938	0.00121839
1950	0.000487356
1962	0.000649808
1974	0.00081226
1986	0.000243678
1998	0.000731034
2010	0.000893486
2022	0.00162452
2034	0.00121839
2046	0.00105594
2058	0.000649808
2070	0.00146207
2082	0.000568582
2094	0
2106	0.00105594
2118	0.00105594
2130	0.00178697
2142	0.00251801
2154	0.00324904
2166	0.00129962
2178	0.00105594
2190	0.00129962
2202	0.00178697
2214	0.000731034
2226	0.00113716
2238	0.000974712
2250	0.00081226
2262	0.000731034
2274	0.00121839
2286	0.00113716
2298	0.00211188
2310	0.00243678
2322	0.00194942
2334	0.00211188
2346	0.0037364
2358	0.00211188
2370	0.00609195
2382	0.00471111
2394	0.00121839
2406	0.000731034
2418	0.000568582
2430	0.000974712
2442	0.000974712
2454	0.000974712
2466	0.000974712
2478	0.000649808
2490	0.00113716
2502	0.000974712
2514	0.00121839
2526	0.0018682
2538	0.000974712
2550	0.00194942
2562	0.0021931
2574	0.0037364
2586	0.0062544
2598	0.00990957
2610	0.0116965
2622	0.00934099
2634	0.00950344
2646	0.0106406
2658	0.00511724
2670	0.00227433
2682	0.00138084
2694	0.00211188
2706	0.00268046
2718	0.00316781
2730	0.00211188
2742	0.0018682
2754	0.0018682
2766	0.0021931
2778	0.00235555
2790	0.00162452
2802	0.00243678
2814	0.00203065
2826	0.00300536
2838	0.00251801
2850	0.00389885
2862	0.00576705
2874	0.00950344
2886	0.0152705
2898	0.0216061
2910	0.0256674
2922	0.026236
2934	0.0186008
2946	0.0122651
2958	0.0084475
2970	0.00787892
2982	0.00503601
2994	0.00430498
3006	0.00284291
3018	0.00292414
3030	0.00284291
3042	0.00333027
3054	0.00341149
3066	0.00243678
3078	0.0021931
3090	0.00243678
3102	0.00203065
3114	0.00227433
3126	0.00276168
3138	0.00251801
3150	0.00203065
3162	0.00284291
3174	0.00194942
3186	0.00194942
3198	0.00243678
3210	0.00284291
3222	0.00462988
3234	0.00349272
3246	0.00211188
3258	0.00146207
3270	0.00194942
3282	0.00154329
3294	0.00203065
3306	0.00268046
3318	0.00243678
3330	0.00203065
3342	0.000568582
3354	0.00251801
3366	0.00308659
3378	0.00105594
3390	0.000974712
3402	0.00284291
3414	0.0021931
3426	0.00381762
3438	0.00333027
3450	0.00422375
3462	0.00471111
3474	0.00381762
3486	0.0018682
3498	0.00162452
3510	0.00284291
3522	0.00162452
3534	0.00316781
3546	0.00357394
3558	0.00276168
3570	0.00243678
3582	0.00162452
3594	0.0043862
3606	0.00341149
3618	0.00316781
3630	0.00601072
3642	0.00519846
3654	0.0043862
3666	0.00365517
3678	0.00657931
3690	0.00479233
3702	0.00422375
3714	0.00657931
3726	0.00706666
3738	0.00454866
3750	0.00739157
3762	0.0059295
3774	0.00527969
3786	0.0043862
3798	0.00446743
3810	0.00714789
3822	0.00657931
3834	0.00674176
3846	0.0077977
3858	0.00487356
3870	0.0040613
3882	0.00398007
3894	0.00674176
3906	0.00495479
3918	0.00763524
3930	0.00422375
3942	0.00341149
3954	0.00552337
3966	0.00251801
