Infrared Spectrum: Dichlorotetrafluoroethane
Formula: C 2 Cl 2 F 4
CAS: 76-14-2
Origin: Sadtler Research Labs Under US-EPA Contract
1/CM	ABSORBANCE
450	0.0156622
462	0.00526574
474	0.000405057
486	0.00270038
498	0.00445563
510	0.00391555
522	0.0028354
534	0.00135019
546	0.00175525
558	0.00270038
570	0.00162023
582	0.00256536
594	0.0109365
606	0.0434761
618	0.0714251
630	0.0297042
642	0.00580582
654	0.00459065
666	0.021198
678	0.0324046
690	0.0122867
702	0.00378053
714	0.00202528
726	0.0114766
738	0.021063
750	0.00756106
762	0.00472567
774	0.00391555
786	0.00297042
798	0.00540076
810	0.0102614
822	0.0681846
834	0.413833
846	0.670369
858	0.191322
870	0.127728
882	0.203609
894	0.172284
906	0.212925
918	0.592193
930	0.440027
942	0.121517
954	0.0831717
966	0.0315944
978	0.0222781
990	0.0194427
1002	0.0179575
1014	0.0180925
1026	0.0695348
1038	0.46163
1050	0.9558
1062	0.35429
1074	0.0361851
1086	0.0417209
1098	0.0950534
1110	0.219406
1122	0.481883
1134	0.811599
1146	0.578961
1158	0.228317
1170	0.596649
1182	1.35019
1194	1.11985
1206	0.311219
1218	0.102074
1230	0.203204
1242	0.144875
1254	0.165263
1266	0.24749
1278	0.149331
1290	0.0652142
1302	0.0324046
1314	0.0109365
1326	0.00945133
1338	0.00810114
1350	0.0101264
1362	0.00958635
1374	0.00729103
1386	0.00675095
1398	0.00594084
1410	0.00594084
1422	0.0049957
1434	0.00675095
1446	0.00486068
1458	0.00297042
1470	0.00445563
1482	0.00445563
1494	0.00526574
1506	0.00472567
1518	0.00324046
1530	0.0021603
1542	0.00364551
1554	0.00297042
1566	0.00162023
1578	0.00121517
1590	0.00135019
1602	0.00108015
1614	0.00135019
1626	0.00121517
1638	0.00135019
1650	0.00175525
1662	0.00297042
1674	0.00391555
1686	0.00270038
1698	0.00189027
1710	0.0021603
1722	0.00297042
1734	0.0028354
1746	0.00189027
1758	0.00108015
1770	0.00108015
1782	0.00175525
1794	0.00148521
1806	0.00175525
1818	0.00162023
1830	0.0021603
1842	0.00256536
1854	0.00243034
1866	0.00175525
1878	0.00175525
1890	0.0021603
1902	0.00175525
1914	0.00148521
1926	0.000945133
1938	0.000945133
1950	0.00108015
1962	0.000945133
1974	0.000810114
1986	0.000945133
1998	0.000810114
2010	0.000810114
2022	0.000945133
2034	0.00108015
2046	0.000675095
2058	0.000540076
2070	0.000675095
2082	0.000675095
2094	0.000810114
2106	0.00108015
2118	0.00121517
2130	0.00135019
2142	0.00121517
2154	0.00135019
2166	0.00162023
2178	0.00202528
2190	0.00378053
2202	0.00540076
2214	0.00553578
2226	0.00607585
2238	0.00810114
2250	0.00607585
2262	0.00364551
2274	0.00324046
2286	0.00472567
2298	0.00607585
2310	0.00594084
2322	0.00432061
2334	0.00351049
2346	0.00445563
2358	0.00540076
2370	0.00270038
2382	0.00108015
2394	0.00162023
2406	0.0021603
2418	0.00202528
2430	0.00297042
2442	0.00445563
2454	0.00459065
2466	0.0028354
2478	0.00162023
2490	0.000945133
2502	0.000945133
2514	0.000810114
2526	0.000675095
2538	0.000540076
2550	0.000675095
2562	0.000675095
2574	0.000540076
2586	0.000405057
2598	0.000540076
2610	0.000675095
2622	0.000135019
2634	0.000405057
2646	0.000540076
2658	0.000405057
2670	0.000405057
2682	0.000675095
2694	0.000135019
2706	0.000405057
2718	0.000270038
2730	0.000405057
2742	0.000675095
2754	0.000405057
2766	0.000540076
2778	0.000540076
2790	0.000675095
2802	0.000135019
2814	0.000540076
2826	0.000810114
2838	0.000405057
2850	0.000810114
2862	0.000810114
2874	0.000135019
2886	0.000675095
2898	0.00121517
2910	0.000540076
2922	0.000540076
2934	0.000540076
2946	0.000810114
2958	0.000810114
2970	0.000810114
2982	0.000945133
2994	0.000540076
3006	0.000405057
3018	0.000405057
3030	0.000405057
3042	0.000675095
3054	0.000810114
3066	0.000675095
3078	0.000540076
3090	0.000675095
3102	0.000540076
3114	0.000270038
3126	0.00135019
3138	0.000675095
3150	0.000675095
3162	0.000675095
3174	0.000405057
3186	0.000810114
3198	0.000945133
3210	0.00121517
3222	0.00121517
3234	0.00148521
3246	0.000675095
3258	0.000945133
3270	0.000945133
3282	0.000810114
3294	0.00162023
3306	0.000945133
3318	0.00121517
3330	0.000945133
3342	0.000945133
3354	0.000945133
3366	0.00162023
3378	0.000810114
3390	0.000945133
3402	0.00202528
3414	0.00148521
3426	0.00189027
3438	0.00108015
3450	0.00189027
3462	0.00202528
3474	0.00148521
3486	0.00148521
3498	0.000810114
3510	0.00135019
3522	0.00121517
3534	0.000675095
3546	0.000810114
3558	0.00175525
3570	0.00135019
3582	0.000675095
3594	0.00121517
3606	0.00243034
3618	0.00135019
3630	0.00148521
3642	0.00175525
3654	0.0021603
3666	0.00189027
3678	0.00108015
3690	0.00121517
3702	0.00162023
3714	0.00256536
3726	0.000675095
3738	0.00270038
3750	0.00202528
3762	0.00108015
3774	0.00202528
3786	0.00175525
3798	0.00270038
3810	0.00135019
3822	0.00229532
3834	0.0028354
3846	0.00189027
3858	0.00121517
3870	0.00135019
3882	0.0021603
3894	0.00108015
3906	0.0021603
3918	0.000540076
3930	0.00229532
3942	0.00135019
3954	0.00189027
3966	0.00108015
