Infrared Spectrum: Ethane, chloropentafluoro-
Formula: C 2 Cl F 5
CAS: 76-15-3
Origin: Sadtler Research Labs Under US-EPA Contract
1/CM	ABSORBANCE
450	0
462	0.00932789
474	0.0109065
486	0.00875387
498	0.00301363
510	0.0071753
522	0.0100454
534	0.0096149
546	0.0126285
558	0.0182253
570	0.012485
582	0.0100454
594	0.00975841
606	0.00789283
618	0.00660128
630	0.00875387
642	0.0325759
654	0.0381726
666	0.0133461
678	0.00832335
690	0.00817984
702	0.0071753
714	0.00932789
726	0.00803634
738	0.00617076
750	0.0456349
762	0.0832335
774	0.0466394
786	0.00430518
798	0.00617076
810	0.00803634
822	0.00602725
834	0.00674478
846	0.00602725
858	0.00631426
870	0.0100454
882	0.0109065
894	0.00832335
906	0.00932789
918	0.00990191
930	0.00975841
942	0.0206649
954	0.0529537
966	0.237789
978	0.537717
990	0.40196
1002	0.130016
1014	0.0529537
1026	0.0144941
1038	0.0114805
1050	0.0094714
1062	0.00803634
1074	0.012485
1086	0.0173642
1098	0.0272661
1110	0.12729
1122	0.403395
1134	0.409279
1146	0.0812244
1158	0.0530972
1170	0.225878
1182	0.358047
1194	0.151973
1206	0.0740491
1218	0.179526
1230	0.901505
1242	1.43506
1254	0.246543
1266	0.0342979
1278	0.0185123
1290	0.0276967
1302	0.0295622
1314	0.0315713
1326	0.059268
1338	0.110213
1350	0.119253
1362	0.0518057
1374	0.00817984
1386	0.00574024
1398	0.0071753
1410	0.00846685
1422	0.00774932
1434	0.00688829
1446	0.00602725
1458	0.00631426
1470	0.00602725
1482	0.00459219
1494	0.00502271
1506	0.00559673
1518	0.00703179
1530	0.00875387
1542	0.00904088
1554	0.00746231
1566	0.00774932
1578	0.00688829
1590	0.00602725
1602	0.00559673
1614	0.00516622
1626	0.00545323
1638	0.00516622
1650	0.00530972
1662	0.00545323
1674	0.00516622
1686	0.00444869
1698	0.00545323
1710	0.00559673
1722	0.00617076
1734	0.00516622
1746	0.0048792
1758	0.00559673
1770	0.00617076
1782	0.00602725
1794	0.00502271
1806	0.00530972
1818	0.00559673
1830	0.00588375
1842	0.00545323
1854	0.00430518
1866	0.00459219
1878	0.0047357
1890	0.0048792
1902	0.0047357
1914	0.00401817
1926	0.00444869
1938	0.00444869
1950	0.00459219
1962	0.0047357
1974	0.0048792
1986	0.00602725
1998	0.00703179
2010	0.0048792
2022	0.00401817
2034	0.00459219
2046	0.00430518
2058	0.00430518
2070	0.00444869
2082	0.00387466
2094	0.00430518
2106	0.00459219
2118	0.00459219
2130	0.00459219
2142	0.00430518
2154	0.00430518
2166	0.00444869
2178	0.00430518
2190	0.00459219
2202	0.0047357
2214	0.00530972
2226	0.0047357
2238	0.0048792
2250	0.00530972
2262	0.00502271
2274	0.00459219
2286	0.00574024
2298	0.00631426
2310	0.00401817
2322	0.00444869
2334	0.00602725
2346	0.00459219
2358	0.00688829
2370	0.00588375
2382	0.00330064
2394	0.00401817
2406	0.0047357
2418	0.0047357
2430	0.0048792
2442	0.00530972
2454	0.00617076
2466	0.00660128
2478	0.00602725
2490	0.00545323
2502	0.00502271
2514	0.0047357
2526	0.00502271
2538	0.00444869
2550	0.00430518
2562	0.00530972
2574	0.00602725
2586	0.00602725
2598	0.00459219
2610	0.00387466
2622	0.00344414
2634	0.00315713
2646	0.00358765
2658	0.00344414
2670	0.00330064
2682	0.00344414
2694	0.00315713
2706	0.00315713
2718	0.00330064
2730	0.00344414
2742	0.00358765
2754	0.00344414
2766	0.00358765
2778	0.00315713
2790	0.00330064
2802	0.00344414
2814	0.00315713
2826	0.00373116
2838	0.00344414
2850	0.00330064
2862	0.00401817
2874	0.00358765
2886	0.00330064
2898	0.00401817
2910	0.00330064
2922	0.00373116
2934	0.00373116
2946	0.00401817
2958	0.00387466
2970	0.00401817
2982	0.00387466
2994	0.00358765
3006	0.00344414
3018	0.00330064
3030	0.00358765
3042	0.00358765
3054	0.00358765
3066	0.00373116
3078	0.00373116
3090	0.00401817
3102	0.00358765
3114	0.00358765
3126	0.00430518
3138	0.00373116
3150	0.00401817
3162	0.00373116
3174	0.00344414
3186	0.00430518
3198	0.00430518
3210	0.00401817
3222	0.00430518
3234	0.0047357
3246	0.00373116
3258	0.00387466
3270	0.00387466
3282	0.00387466
3294	0.00430518
3306	0.00387466
3318	0.00401817
3330	0.00387466
3342	0.00401817
3354	0.00430518
3366	0.0048792
3378	0.00401817
3390	0.00430518
3402	0.00459219
3414	0.00430518
3426	0.00459219
3438	0.00401817
3450	0.00459219
3462	0.00430518
3474	0.00502271
3486	0.00358765
3498	0.00430518
3510	0.00373116
3522	0.00444869
3534	0.00358765
3546	0.00401817
3558	0.00459219
3570	0.00430518
3582	0.00358765
3594	0.00373116
3606	0.00530972
3618	0.00358765
3630	0.00459219
3642	0.0048792
3654	0.00516622
3666	0.00559673
3678	0.00516622
3690	0.0048792
3702	0.00444869
3714	0.00516622
3726	0.0048792
3738	0.00617076
3750	0.00401817
3762	0.00358765
3774	0.00559673
3786	0.00502271
3798	0.0048792
3810	0.0047357
3822	0.00401817
3834	0.00559673
3846	0.00559673
3858	0.00401817
3870	0.00459219
3882	0.00430518
3894	0.00373116
3906	0.00617076
3918	0.00330064
3930	0.00502271
3942	0.00444869
3954	0.00602725
3966	0.00330064
