Infrared Spectrum: Ethane, 1,1,2-trichloro-1,2,2-trifluoro-
Formula: C 2 Cl 3 F 3
CAS: 76-13-1
Origin: Sadtler Research Labs Under US-EPA Contract
1/CM	ABSORBANCE
450	0.00516989
462	0.00947813
474	0.000861648
486	0.00150788
498	0.00829336
510	0.00678548
522	0.0126016
534	0.0198179
546	0.00376971
558	0.00215412
570	0.003662
582	0.00193871
594	0.00387742
606	0.00506218
618	0.00861648
630	0.0286498
642	0.0374817
654	0.0543915
666	0.0203564
678	0.00463136
690	0.00376971
702	0.00376971
714	0.00420053
726	0.00560071
738	0.00592383
750	0.00624695
762	0.00732401
774	0.0241261
786	0.0654852
798	0.309762
810	0.97097
822	0.69955
834	0.0966123
846	0.063008
858	0.0812103
870	0.180192
882	0.339274
894	0.527544
906	0.768913
918	0.52399
930	0.20001
942	0.0416822
954	0.0192794
966	0.0252032
978	0.0268188
990	0.0168021
1002	0.0204641
1014	0.0469598
1026	0.224352
1038	0.612309
1050	0.527544
1062	0.157143
1074	0.0462059
1086	0.0715168
1098	0.223382
1110	0.66153
1122	0.514081
1134	0.0701166
1146	0.050191
1158	0.231029
1170	0.691149
1182	0.70429
1194	0.39722
1206	0.488662
1218	0.278528
1230	0.0342505
1242	0.0174484
1254	0.0174484
1266	0.0123862
1278	0.00861648
1290	0.00603154
1302	0.00527759
1314	0.00484677
1326	0.00657007
1338	0.0113091
1350	0.0116322
1362	0.00990895
1374	0.0119554
1386	0.00958583
1398	0.00743171
1410	0.00786254
1422	0.00484677
1434	0.00269265
1446	0.00204641
1458	0.00226183
1470	0.00312347
1482	0.00258494
1494	0.00280036
1506	0.00150788
1518	0.00236953
1530	0.00301577
1542	0.00161559
1554	0.00204641
1566	0.00215412
1578	0.000969354
1590	0.00150788
1602	0.00118477
1614	0.00118477
1626	0.00193871
1638	0.00236953
1650	0.00301577
1662	0.00150788
1674	0.00129247
1686	0.000861648
1698	0.00150788
1710	0.00204641
1722	0.00204641
1734	0.00118477
1746	0.001831
1758	0.00193871
1770	0.00204641
1782	0.00150788
1794	0.00140018
1806	0.00161559
1818	0.00204641
1830	0.00247724
1842	0.00247724
1854	0.00269265
1866	0.00247724
1878	0.00107706
1890	0.000969354
1902	0.000753942
1914	0.00118477
1926	0.000861648
1938	0.00118477
1950	0.00107706
1962	0.000753942
1974	0.00118477
1986	0.00118477
1998	0.00118477
2010	0.0017233
2022	0.00204641
2034	0.00236953
2046	0.00247724
2058	0.00269265
2070	0.00301577
2082	0.00323118
2094	0.00312347
2106	0.00236953
2118	0.00258494
2130	0.00280036
2142	0.00236953
2154	0.00301577
2166	0.0035543
2178	0.00344659
2190	0.00441595
2202	0.00495448
2214	0.00700089
2226	0.00646236
2238	0.00409283
2250	0.00387742
2262	0.00333889
2274	0.00258494
2286	0.00204641
2298	0.00301577
2310	0.00376971
2322	0.00516989
2334	0.00398512
2346	0.00430824
2358	0.00387742
2370	0.00516989
2382	0.00495448
2394	0.00290806
2406	0.000753942
2418	0.000323118
2430	0.000323118
2442	0.000430824
2454	0.00053853
2466	0.000753942
2478	0.00053853
2490	0.000323118
2502	0.000323118
2514	0.000753942
2526	0.00053853
2538	0.000430824
2550	0.000323118
2562	0.000646236
2574	0.00053853
2586	0.000430824
2598	0.000107706
2610	0.000646236
2622	0.000215412
2634	0.000323118
2646	0.000323118
2658	0.00053853
2670	0.000107706
2682	0.000215412
2694	0.00053853
2706	0.000215412
2718	0.000646236
2730	0.00053853
2742	0.000430824
2754	0.000323118
2766	0.000430824
2778	0.000430824
2790	0.000646236
2802	0.000107706
2814	0.000215412
2826	0.00053853
2838	0.00053853
2850	0.000430824
2862	0.000646236
2874	0.000753942
2886	0.000323118
2898	0.000215412
2910	0.000323118
2922	0.00053853
2934	0.000646236
2946	0.000430824
2958	0.000753942
2970	0.000646236
2982	0.000861648
2994	0.000861648
3006	0.00053853
3018	0.00053853
3030	0.000430824
3042	0.000861648
3054	0.000430824
3066	0.000646236
3078	0.000323118
3090	0.00053853
3102	0.000430824
3114	0.00053853
3126	0.000215412
3138	0.000646236
3150	0.000646236
3162	0.000646236
3174	0.000107706
3186	0.00053853
3198	0.000861648
3210	0.000969354
3222	0.000215412
3234	0.000323118
3246	0.000861648
3258	0.000753942
3270	0.000753942
3282	0.000753942
3294	0.000753942
3306	0.000753942
3318	0.00107706
3330	0.00053853
3342	0.000646236
3354	0.000646236
3366	0.00107706
3378	0.000646236
3390	0.000861648
3402	0.000753942
3414	0.000753942
3426	0.000969354
3438	0.000753942
3450	0.000861648
3462	0.000753942
3474	0.000646236
3486	0.00129247
3498	0.000753942
3510	0.000753942
3522	0.000107706
3534	0.000969354
3546	0.00129247
3558	0.000215412
3570	0.000430824
3582	0.000430824
3594	0.00150788
3606	0.00204641
3618	0.000753942
3630	0.000861648
3642	0.0017233
3654	0.000753942
3666	0.00150788
3678	0.000646236
3690	0.000861648
3702	0.00118477
3714	0.0017233
3726	0.00193871
3738	0.00140018
3750	0.00129247
3762	0.00118477
3774	0.0017233
3786	0.00150788
3798	0.00129247
3810	0
3822	0.000753942
3834	0.00161559
3846	0.000753942
3858	0.000969354
3870	0.00053853
3882	0.00258494
3894	0.000430824
3906	0.000969354
3918	0.00193871
3930	0.000646236
3942	0.00161559
3954	0.000753942
3966	0
