Infrared Spectrum: Ethane, 1,1,2,2-tetrachloro-1,2-difluoro-
Formula: C 2 Cl 4 F 2
CAS: 76-12-0
Origin: Sadtler Research Labs Under US-EPA Contract
1/CM	ABSORBANCE
450	0.00268639
462	0.00537278
474	0.0259685
486	0.0322367
498	0.0115415
510	0.00686522
522	0.0107456
534	0.0138299
546	0.00805918
558	0.00636774
570	0.00626825
582	0.00557178
594	0.00636774
606	0.00716371
618	0.00845716
630	0.00945212
642	0.00786018
654	0.00726321
666	0.00358186
678	0.00686522
690	0.00915363
702	0.0127355
714	0.011243
726	0.0143274
738	0.074224
750	0.362066
762	0.51718
774	0.516583
786	0.913572
798	0.320178
810	0.0572102
822	0.171531
834	0.728908
846	0.73637
858	0.198495
870	0.380572
882	0.875167
894	0.911582
906	0.618766
918	0.310627
930	0.340475
942	0.163671
954	0.049151
966	0.0267644
978	0.0222871
990	0.0233816
1002	0.0370125
1014	0.149244
1026	0.398183
1038	0.236402
1050	0.0584042
1062	0.0345251
1074	0.0676573
1086	0.237397
1098	0.301771
1110	0.493003
1122	0.69886
1134	0.491013
1146	0.507032
1158	0.119893
1170	0.10059
1182	0.0304458
1194	0.0225856
1206	0.0168148
1218	0.0119395
1230	0.0107456
1242	0.0137304
1254	0.0169143
1266	0.0151234
1278	0.0127355
1290	0.0110441
1302	0.011442
1314	0.0141284
1326	0.0100491
1338	0.00895464
1350	0.00965111
1362	0.00636774
1374	0.00636774
1386	0.0073627
1398	0.00766119
1410	0.00815867
1422	0.00786018
1434	0.00557178
1446	0.00517379
1458	0.00527329
1470	0.00427833
1482	0.00467631
1494	0.00467631
1506	0.00477581
1518	0.00557178
1530	0.0050743
1542	0.00477581
1554	0.00388034
1566	0.00407934
1578	0.00378085
1590	0.00368135
1602	0.00368135
1614	0.00397984
1626	0.00397984
1638	0.00407934
1650	0.00427833
1662	0.00477581
1674	0.0048753
1686	0.00666623
1698	0.00587026
1710	0.00437782
1722	0.00397984
1734	0.00417883
1746	0.0048753
1758	0.00447732
1770	0.00368135
1782	0.00397984
1794	0.00397984
1806	0.00417883
1818	0.00397984
1830	0.00368135
1842	0.00358186
1854	0.00308438
1866	0.00358186
1878	0.00407934
1890	0.00447732
1902	0.00437782
1914	0.00388034
1926	0.00417883
1938	0.00348236
1950	0.00338286
1962	0.00298488
1974	0.00338286
1986	0.00338286
1998	0.00308438
2010	0.00328337
2022	0.00348236
2034	0.00348236
2046	0.00368135
2058	0.00328337
2070	0.00308438
2082	0.00308438
2094	0.00348236
2106	0.00397984
2118	0.00477581
2130	0.00437782
2142	0.00616875
2154	0.0107456
2166	0.0142279
2178	0.0099496
2190	0.0048753
2202	0.00397984
2214	0.0049748
2226	0.00587026
2238	0.00636774
2250	0.00766119
2262	0.00646724
2274	0.00477581
2286	0.00358186
2298	0.0024874
2310	0.0023879
2322	0.0024874
2334	0.00198992
2346	0.00159194
2358	0.0025869
2370	0.0025869
2382	0.0025869
2394	0.00189042
2406	0.00189042
2418	0.00169143
2430	0.00189042
2442	0.00159194
2454	0.00179093
2466	0.00129345
2478	0.00169143
2490	0.00139294
2502	0.00149244
2514	0.00159194
2526	0.00149244
2538	0.00149244
2550	0.00149244
2562	0.00119395
2574	0.00119395
2586	0.00109446
2598	0.00119395
2610	0.00129345
2622	0.00109446
2634	0.00099496
2646	0.00099496
2658	0.00109446
2670	0.000895464
2682	0.00109446
2694	0.00119395
2706	0.00109446
2718	0.00109446
2730	0.00109446
2742	0.000895464
2754	0.00109446
2766	0.00099496
2778	0.000596976
2790	0.00049748
2802	0.00099496
2814	0.000696472
2826	0.00099496
2838	0.000696472
2850	0.000596976
2862	0.000895464
2874	0.000696472
2886	0.00119395
2898	0.000696472
2910	0.000795968
2922	0.00099496
2934	0.000696472
2946	0.000696472
2958	0.000696472
2970	0.000795968
2982	0.000696472
2994	0.000895464
3006	0.00109446
3018	0.000895464
3030	0.000696472
3042	0.00109446
3054	0.00119395
3066	0.00049748
3078	0.00119395
3090	0.000795968
3102	0.000795968
3114	0.000696472
3126	0.000596976
3138	0.00099496
3150	0.00129345
3162	0.00129345
3174	0.00139294
3186	0.000895464
3198	0.00119395
3210	0.00129345
3222	0.00109446
3234	0.00109446
3246	0.00149244
3258	0.00119395
3270	0.00109446
3282	0.00159194
3294	0.00159194
3306	0.00159194
3318	0.00119395
3330	0.000895464
3342	0.00159194
3354	0.00139294
3366	0.00119395
3378	0.000795968
3390	0.00109446
3402	0.000895464
3414	0.00159194
3426	0.00119395
3438	0.000596976
3450	0.00139294
3462	0.00189042
3474	0.00139294
3486	0.00218891
3498	0.00149244
3510	0.00208942
3522	0.00159194
3534	0.000795968
3546	0.000895464
3558	0.00189042
3570	0.00159194
3582	0.00189042
3594	0.000895464
3606	0.00179093
3618	0.00109446
3630	0.00109446
3642	0.00149244
3654	0.00139294
3666	0.00228841
3678	0.00198992
3690	0.00119395
3702	0.000895464
3714	0.00218891
3726	0.00049748
3738	0.00139294
3750	0.0023879
3762	0.00288538
3774	0.00159194
3786	0.00179093
3798	0.00159194
3810	0.00149244
3822	0.00149244
3834	0.00049748
3846	0.0025869
3858	0.00119395
3870	0.00179093
3882	0.00208942
3894	0.00288538
3906	0.00159194
3918	0.00278589
3930	0.0024874
3942	0.00159194
3954	0.00109446
3966	0.00169143
