Infrared Spectrum: Ethane, hexafluoro-
Formula: C 2 F 6
CAS: 76-16-4
Origin: Sadtler Research Labs Under US-EPA Contract
1/CM	ABSORBANCE
450	0
462	0.0141115
474	0.00918576
486	0.00878638
498	0.00852013
510	0.0141115
522	0.0159752
534	0.0114489
546	0.0114489
558	0.00958514
570	0.00785449
582	0.0106502
594	0.00718886
606	0.00905264
618	0.00931889
630	0.00612384
642	0.00878638
654	0.00905264
666	0.00718886
678	0.00745511
690	0.00732199
702	0.0280898
714	0.0515201
726	0.0376749
738	0.00772137
750	0.00732199
762	0.00852013
774	0.00758824
786	0.00825387
798	0.00785449
810	0.00772137
822	0.00812075
834	0.00678948
846	0.00825387
858	0.00772137
870	0.00652322
882	0.008387
894	0.00785449
906	0.00678948
918	0.00745511
930	0.00718886
942	0.0069226
954	0.00825387
966	0.00678948
978	0.00718886
990	0.00798762
1002	0.00665635
1014	0.008387
1026	0.00878638
1038	0.00758824
1050	0.00945202
1062	0.00825387
1074	0.00732199
1086	0.0143777
1098	0.082805
1110	0.246285
1122	0.256003
1134	0.0310186
1146	0.0207678
1158	0.00958514
1170	0.0103839
1182	0.010517
1194	0.0165077
1206	0.0210341
1218	0.0214334
1230	0.157755
1242	1.02455
1254	0.876109
1266	0.0627028
1278	0.0114489
1290	0.0111827
1302	0.0150434
1314	0.0213003
1326	0.0252941
1338	0.0209009
1350	0.0133127
1362	0.00878638
1374	0.00785449
1386	0.00665635
1398	0.00718886
1410	0.00705573
1422	0.0069226
1434	0.00785449
1446	0.00785449
1458	0.008387
1470	0.00825387
1482	0.00652322
1494	0.0069226
1506	0.0069226
1518	0.00599071
1530	0.00705573
1542	0.00652322
1554	0.00665635
1566	0.0069226
1578	0.00718886
1590	0.00758824
1602	0.00798762
1614	0.00785449
1626	0.00878638
1638	0.00812075
1650	0.00678948
1662	0.00612384
1674	0.00678948
1686	0.0063901
1698	0.00678948
1710	0.00732199
1722	0.00798762
1734	0.00865326
1746	0.00732199
1758	0.00718886
1770	0.00745511
1782	0.00652322
1794	0.0069226
1806	0.00678948
1818	0.0063901
1830	0.00678948
1842	0.00652322
1854	0.00732199
1866	0.00772137
1878	0.00705573
1890	0.00678948
1902	0.00625697
1914	0.0063901
1926	0.00665635
1938	0.00705573
1950	0.00678948
1962	0.00705573
1974	0.0063901
1986	0.0063901
1998	0.00652322
2010	0.00652322
2022	0.00625697
2034	0.00678948
2046	0.00891951
2058	0.00812075
2070	0.00652322
2082	0.00612384
2094	0.00625697
2106	0.0063901
2118	0.00652322
2130	0.0063901
2142	0.00652322
2154	0.00625697
2166	0.0063901
2178	0.00625697
2190	0.00585759
2202	0.00599071
2214	0.00599071
2226	0.00585759
2238	0.00625697
2250	0.00652322
2262	0.0063901
2274	0.0063901
2286	0.00652322
2298	0.00705573
2310	0.00745511
2322	0.00798762
2334	0.00798762
2346	0.00958514
2358	0.00732199
2370	0.00599071
2382	0.00665635
2394	0.00652322
2406	0.00652322
2418	0.00625697
2430	0.00678948
2442	0.00705573
2454	0.00745511
2466	0.00798762
2478	0.00745511
2490	0.00758824
2502	0.00745511
2514	0.00758824
2526	0.00732199
2538	0.00678948
2550	0.00652322
2562	0.00665635
2574	0.00678948
2586	0.00665635
2598	0.0063901
2610	0.00625697
2622	0.0063901
2634	0.0069226
2646	0.00758824
2658	0.00812075
2670	0.00758824
2682	0.00678948
2694	0.00665635
2706	0.00652322
2718	0.0063901
2730	0.00665635
2742	0.00652322
2754	0.0069226
2766	0.00678948
2778	0.00678948
2790	0.00678948
2802	0.00665635
2814	0.00652322
2826	0.00678948
2838	0.0069226
2850	0.00665635
2862	0.00705573
2874	0.00718886
2886	0.00678948
2898	0.00732199
2910	0.0069226
2922	0.00732199
2934	0.00745511
2946	0.00732199
2958	0.00718886
2970	0.00772137
2982	0.00705573
2994	0.00705573
3006	0.00678948
3018	0.0063901
3030	0.00665635
3042	0.00665635
3054	0.00652322
3066	0.0069226
3078	0.00678948
3090	0.00665635
3102	0.00705573
3114	0.0069226
3126	0.0069226
3138	0.0069226
3150	0.00678948
3162	0.0069226
3174	0.00665635
3186	0.00678948
3198	0.00705573
3210	0.00732199
3222	0.00705573
3234	0.00678948
3246	0.00678948
3258	0.00718886
3270	0.0069226
3282	0.00678948
3294	0.00718886
3306	0.00665635
3318	0.0069226
3330	0.00718886
3342	0.0069226
3354	0.00678948
3366	0.00732199
3378	0.0069226
3390	0.00652322
3402	0.00718886
3414	0.00705573
3426	0.0069226
3438	0.0069226
3450	0.00599071
3462	0.00678948
3474	0.00745511
3486	0.00652322
3498	0.00665635
3510	0.00625697
3522	0.00732199
3534	0.00705573
3546	0.00718886
3558	0.00612384
3570	0.00758824
3582	0.00585759
3594	0.00772137
3606	0.00665635
3618	0.00758824
3630	0.00705573
3642	0.00732199
3654	0.00625697
3666	0.0063901
3678	0.00825387
3690	0.00745511
3702	0.00652322
3714	0.00678948
3726	0.0069226
3738	0.00652322
3750	0.00599071
3762	0.0069226
3774	0.00652322
3786	0.0063901
3798	0.00678948
3810	0.00678948
3822	0.00678948
3834	0.00705573
3846	0.00785449
3858	0.00718886
3870	0.00772137
3882	0.0069226
3894	0.00732199
3906	0.00585759
3918	0.00652322
3930	0.00758824
3942	0.00599071
3954	0.00705573
3966	0.00585759
