Infrared Spectrum: 9-H-Hexadecafluorononanoic acid
Formula: C 9 H 2 F 16 O 2
CAS: 76-21-1
Origin: Sadtler Research Labs Under US-EPA Contract
1/CM	ABSORBANCE
450	0.016914
462	0.0062184
474	0.00447725
486	0.00708898
498	0.0196501
510	0.0304702
522	0.0482548
534	0.0676562
546	0.114294
558	0.0968827
570	0.102852
582	0.0886744
594	0.0756157
606	0.0720091
618	0.0833266
630	0.0988726
642	0.104096
654	0.0945197
666	0.115414
678	0.0761132
690	0.0808392
702	0.0900424
714	0.0636764
726	0.0636764
738	0.0769838
750	0.0570849
762	0.0971314
774	0.124617
786	0.0951415
798	0.0869332
810	0.0752426
822	0.0620596
834	0.0580799
846	0.0368129
858	0.0286046
870	0.0368129
882	0.0376835
894	0.0344499
906	0.022635
918	0.0182821
930	0.0206451
942	0.0213913
954	0.0215157
966	0.0302214
978	0.040544
990	0.046638
1002	0.0380566
1014	0.024998
1026	0.0262416
1038	0.0483792
1050	0.0616865
1062	0.052732
1074	0.0517371
1086	0.0680293
1098	0.101733
1110	0.168146
1122	0.30893
1134	0.461157
1146	0.51849
1158	0.4527
1170	0.46638
1182	0.512396
1194	0.563138
1206	0.687009
1218	1.14941
1230	0.917463
1242	0.363528
1254	0.196253
1266	0.145884
1278	0.114543
1290	0.0781031
1302	0.05609
1314	0.0473842
1326	0.050369
1338	0.0541001
1350	0.0443994
1362	0.046638
1374	0.0416633
1386	0.062184
1398	0.0604428
1410	0.0436532
1422	0.0156704
1434	0.0093276
1446	0.00646714
1458	0.00721334
1470	0.00534782
1482	0.00422851
1494	0.0031092
1506	0.00534782
1518	0.00460162
1530	0.00547219
1542	0.00547219
1554	0.00435288
1566	0.00447725
1578	0.00298483
1590	0.00298483
1602	0.00261173
1614	0.00248736
1626	0.00149242
1638	0.00223862
1650	0.00771082
1662	0.00845702
1674	0.0110688
1686	0.01082
1698	0.011815
1710	0.00994944
1722	0.0113175
1734	0.0130586
1746	0.0140536
1758	0.0191527
1770	0.0327088
1782	0.046638
1794	0.0725065
1806	0.180707
1818	0.392132
1830	0.127477
1842	0.0733771
1854	0.0344499
1866	0.0198989
1878	0.0135561
1890	0.0106956
1902	0.00883013
1914	0.00808392
1926	0.00795955
1938	0.00746208
1950	0.00708898
1962	0.0065915
1974	0.00634277
1986	0.0062184
1998	0.00609403
2010	0.00534782
2022	0.00559656
2034	0.00497472
2046	0.00472598
2058	0.00509909
2070	0.00547219
2082	0.00509909
2094	0.00447725
2106	0.00460162
2118	0.00497472
2130	0.00472598
2142	0.00497472
2154	0.00472598
2166	0.00485035
2178	0.00497472
2190	0.00522346
2202	0.00485035
2214	0.00547219
2226	0.00534782
2238	0.00596966
2250	0.0062184
2262	0.0062184
2274	0.00497472
2286	0.00497472
2298	0.00497472
2310	0.00435288
2322	0.00323357
2334	0.00223862
2346	0.00360667
2358	0.00186552
2370	0.00198989
2382	0.00572093
2394	0.00758645
2406	0.00721334
2418	0.00684024
2430	0.0062184
2442	0.00609403
2454	0.00609403
2466	0.00547219
2478	0.00534782
2490	0.00522346
2502	0.00534782
2514	0.00497472
2526	0.00447725
2538	0.00410414
2550	0.00373104
2562	0.00323357
2574	0.00248736
2586	0.00248736
2598	0.00198989
2610	0.00161678
2622	0.00161678
2634	0.00111931
2646	0.000994944
2658	0.000870576
2670	0.000746208
2682	0.000746208
2694	0.00062184
2706	0.000746208
2718	0.000497472
2730	0.000497472
2742	0.000248736
2754	0.000248736
2766	0.000248736
2778	0.000248736
2790	0.000373104
2802	0.000497472
2814	0.000497472
2826	0.000497472
2838	0.000124368
2850	0.000248736
2862	0.000870576
2874	0.000870576
2886	0.000870576
2898	0.00111931
2910	0.00149242
2922	0.00161678
2934	0.00286046
2946	0.00261173
2958	0.00261173
2970	0.00422851
2982	0.011815
2994	0.00609403
3006	0.0123124
3018	0.00920323
3030	0.0034823
3042	0.00248736
3054	0.00186552
3066	0.00161678
3078	0.00149242
3090	0.00136805
3102	0.00149242
3114	0.00149242
3126	0.00161678
3138	0.00124368
3150	0.00149242
3162	0.00174115
3174	0.00136805
3186	0.00124368
3198	0.00124368
3210	0.00124368
3222	0.000870576
3234	0.00062184
3246	0.00062184
3258	0.000746208
3270	0
3282	0.000248736
3294	0.000373104
3306	0.00062184
3318	0.00211426
3330	0.00223862
3342	0.00261173
3354	0.0027361
3366	0.00373104
3378	0.0031092
3390	0.0031092
3402	0.00323357
3414	0.00261173
3426	0.00385541
3438	0.00335794
3450	0.00298483
3462	0.0034823
3474	0.0027361
3486	0.00323357
3498	0.00373104
3510	0.0034823
3522	0.00410414
3534	0.00435288
3546	0.00982507
3558	0.0185308
3570	0.162798
3582	0.0904155
3594	0.0198989
3606	0.0259929
3618	0.0139292
3630	0.0093276
3642	0.00385541
3654	0.00646714
3666	0.0034823
3678	0.00534782
3690	0.00746208
3702	0.00397978
3714	0.0062184
3726	0.00634277
3738	0.00883013
3750	0.00994944
3762	0.00472598
3774	0.00223862
3786	0.0034823
3798	0.00373104
3810	0.00472598
3822	0.00509909
3834	0.00447725
3846	0.00261173
3858	0.00509909
3870	0.00572093
3882	0.00671587
3894	0.00248736
3906	0.00696461
3918	0.00522346
3930	0.00422851
3942	0.00298483
3954	0.00435288
3966	0.00373104
