Infrared Spectrum: 2,2,3,3-Tetrafluoro-1-propanol
Formula: C 3 H 4 F 4 O
CAS: 76-37-9
Origin: Sadtler Research Labs Under US-EPA Contract
1/CM	ABSORBANCE
450	0.0318184
462	0.0149386
474	0.0320716
486	0.013335
498	0.00928389
510	0.0173862
522	0.0285269
534	0.0544374
546	0.0626241
558	0.0335064
570	0.0157826
582	0.0297928
594	0.0253197
606	0.0164578
618	0.00742711
630	0.0132506
642	0.0167954
654	0.0268389
666	0.0409335
678	0.0475166
690	0.0568849
702	0.03722
714	0.0186522
726	0.0178926
738	0.00379795
750	0.0240537
762	0.00903069
774	0.00995908
786	0.0194118
798	0.0251509
810	0.0375576
822	0.0582353
834	0.085665
846	0.0565473
858	0.0214373
870	0.0156138
882	0.0160358
894	0.0215217
906	0.0410179
918	0.0577289
930	0.0589105
942	0.0492046
954	0.0335908
966	0.0230409
978	0.0222813
990	0.0267545
1002	0.0319872
1014	0.0360384
1026	0.0413555
1038	0.0698824
1050	0.116302
1062	0.190742
1074	0.243744
1086	0.216652
1098	0.255898
1110	0.543698
1122	0.84399
1134	0.711484
1146	0.429675
1158	0.18534
1170	0.127864
1182	0.170655
1194	0.217159
1206	0.193021
1218	0.161793
1230	0.141537
1242	0.116133
1254	0.0888721
1266	0.0730895
1278	0.067688
1290	0.0572225
1302	0.0474322
1314	0.037642
1326	0.0328312
1338	0.0456599
1350	0.0665064
1362	0.0656624
1374	0.0421995
1386	0.0320716
1398	0.0364604
1410	0.0396675
1422	0.029624
1434	0.0168798
1446	0.0144322
1458	0.0233785
1470	0.0204246
1482	0.0125755
1494	0.00776471
1506	0.00573913
1518	0.00438875
1530	0.00590793
1542	0.00320716
1554	0.00413555
1566	0.00430435
1578	0.00388235
1590	0.00523274
1602	0.00396675
1614	0.00303836
1626	0.00497954
1638	0.00278517
1650	0.00160358
1662	0.00573913
1674	0.00295397
1686	0.00219437
1698	0.00109719
1710	0.00354476
1722	0.00278517
1734	0.00388235
1746	0.00371356
1758	0.00346036
1770	0.00396675
1782	0.00371356
1794	0.00295397
1806	0.00312276
1818	0.00346036
1830	0.00236317
1842	0.00303836
1854	0.00346036
1866	0.00202558
1878	0.00270077
1890	0.00295397
1902	0.00244757
1914	0.00303836
1926	0.00253197
1938	0.00261637
1950	0.00278517
1962	0.00295397
1974	0.00270077
1986	0.00244757
1998	0.00261637
2010	0.00295397
2022	0.00303836
2034	0.00270077
2046	0.00295397
2058	0.00261637
2070	0.00303836
2082	0.00295397
2094	0.00286957
2106	0.00303836
2118	0.00388235
2130	0.00430435
2142	0.00464194
2154	0.00455755
2166	0.00354476
2178	0.00362916
2190	0.00320716
2202	0.00379795
2214	0.00421995
2226	0.00481074
2238	0.00464194
2250	0.00413555
2262	0.00396675
2274	0.00396675
2286	0.00346036
2298	0.00329156
2310	0.00303836
2322	0.00320716
2334	0.00261637
2346	0.00295397
2358	0.00168798
2370	0.00227877
2382	0.00202558
2394	0.00194118
2406	0.00202558
2418	0.00160358
2430	0.00177238
2442	0.00202558
2454	0.00194118
2466	0.00244757
2478	0.00253197
2490	0.00168798
2502	0.00185678
2514	0.00185678
2526	0.00210998
2538	0.00194118
2550	0.00177238
2562	0.00126599
2574	0.00126599
2586	0.00151918
2598	0.00135038
2610	0.00101279
2622	0.00151918
2634	0.00118159
2646	0.00109719
2658	0.00202558
2670	0.00160358
2682	0.00210998
2694	0.00210998
2706	0.00168798
2718	0.00219437
2730	0.00210998
2742	0.00227877
2754	0.00320716
2766	0.00303836
2778	0.00362916
2790	0.00455755
2802	0.00531714
2814	0.00607673
2826	0.00708952
2838	0.00734271
2850	0.00759591
2862	0.00953709
2874	0.0117315
2886	0.0174706
2898	0.0238005
2910	0.0212685
2922	0.0193274
2934	0.0259949
2946	0.0410179
2958	0.0435499
2970	0.0396675
2982	0.0516522
2994	0.0595013
3006	0.0446471
3018	0.0219437
3030	0.00928389
3042	0.00548593
3054	0.00438875
3066	0.00320716
3078	0.00278517
3090	0.00210998
3102	0.00177238
3114	0.00151918
3126	0.00219437
3138	0.00236317
3150	0.00185678
3162	0.00135038
3174	0.00101279
3186	0.00160358
3198	0.00151918
3210	0.00151918
3222	0.00151918
3234	0.00151918
3246	0.00126599
3258	0.00160358
3270	0.000590793
3282	0.00168798
3294	0.00168798
3306	0.00126599
3318	0.00202558
3330	0.00126599
3342	0.00185678
3354	0.00143478
3366	0.00177238
3378	0.00219437
3390	0.00244757
3402	0.00244757
3414	0.00202558
3426	0.00244757
3438	0.00177238
3450	0.00177238
3462	0.00219437
3474	0.00185678
3486	0.00194118
3498	0.00101279
3510	0.00202558
3522	0.00194118
3534	0.00168798
3546	0.00278517
3558	0.00312276
3570	0.00438875
3582	0.00455755
3594	0.00447315
3606	0.00565473
3618	0.00759591
3630	0.00995908
3642	0.031734
3654	0.0785755
3666	0.0849054
3678	0.0483606
3690	0.0177238
3702	0.0113095
3714	0.00919949
3726	0.00979028
3738	0.00801791
3750	0.00455755
3762	0.00413555
3774	0.00388235
3786	0.00405115
3798	0.00346036
3810	0.00143478
3822	0.00227877
3834	0.00346036
3846	0.00438875
3858	0.00261637
3870	0.00514834
3882	0.00430435
3894	0.00430435
3906	0.00346036
3918	0.00641432
3930	0.00489514
3942	0.00616113
3954	0.00590793
3966	0.00303836
