Infrared Spectrum: 2,2-Dimethyl-1,3-butanediol
Formula: C 6 H 14 O 2
CAS: 76-35-7
Origin: Sadtler Research Labs Under US-EPA Contract
1/CM	ABSORBANCE
450	0.0780129
462	0.0218081
474	0.017021
486	0.0191486
498	0.032003
510	0.0442368
522	0.00771264
534	0.0140069
546	0.00833319
558	0.0192373
570	0.0536339
582	0.0406022
594	0.0325349
606	0.0155139
618	0.00478715
630	0.0112587
642	0.00992891
654	0.0123225
666	0.0142728
678	0.00726938
690	0.0126771
702	0.0123225
714	0.0143615
726	0.0199465
738	0.0127657
750	0.00939701
762	0
774	0.01117
786	0.0103722
798	0.0117019
810	0.0130317
822	0.013209
834	0.0220741
846	0.0357264
858	0.0347512
870	0.0278364
882	0.0372334
894	0.0931722
906	0.190245
918	0.18466
930	0.0989345
942	0.0742009
954	0.0839525
966	0.0875872
978	0.0796086
990	0.0941474
1002	0.143526
1014	0.259481
1026	0.465772
1038	0.630841
1050	0.573129
1062	0.43962
1074	0.433237
1086	0.505311
1098	0.470382
1110	0.288027
1122	0.163118
1134	0.111257
1146	0.108775
1158	0.116842
1170	0.127569
1182	0.13209
1194	0.1242
1206	0.118792
1218	0.119058
1230	0.128278
1242	0.14787
1254	0.159749
1266	0.155405
1278	0.14654
1290	0.147959
1302	0.139891
1314	0.114005
1326	0.104608
1338	0.125618
1350	0.134838
1362	0.18927
1374	0.291484
1386	0.324551
1398	0.280403
1410	0.238471
1422	0.1906
1434	0.131913
1446	0.128101
1458	0.174288
1470	0.222425
1482	0.193259
1494	0.0966296
1506	0.0336874
1518	0.0199465
1530	0.0133863
1542	0.0132977
1554	0.00877645
1566	0.00833319
1578	0.00744668
1590	0.00771264
1602	0.00726938
1614	0.00833319
1626	0.00647152
1638	0.00771264
1650	0.0043439
1662	0.0043439
1674	0.0041666
1686	0.00647152
1698	0.0041666
1710	0.00363469
1722	0.00478715
1734	0.00567366
1746	0.00753533
1758	0.01117
1770	0.0110814
1782	0.00593962
1794	0.00283683
1806	0.00390064
1818	0.00354604
1830	0.00221628
1842	0.00221628
1854	0.00132977
1866	0.00177302
1878	0.00159572
1890	0.00239358
1902	0.00212762
1914	0.00221628
1926	0.00221628
1938	0.00274818
1950	0.00230493
1962	0.00257088
1974	0.00283683
1986	0.00274818
1998	0.00292548
2010	0.00265953
2022	0.00239358
2034	0.00265953
2046	0.00381199
2058	0.00425525
2070	0.00523041
2082	0.0045212
2094	0.00328009
2106	0.00336874
2118	0.00257088
2130	0.00248223
2142	0.00124111
2154	0.000709208
2166	0.00106381
2178	0.00088651
2190	0.00124111
2202	0.00168437
2214	0.00195032
2226	0.00195032
2238	0.00141842
2250	0.000709208
2262	0.00141842
2274	0.00186167
2286	0.00212762
2298	0.00319144
2310	0.00345739
2322	0.00363469
2334	0.00257088
2346	0.000531906
2358	0.00301413
2370	0.000620557
2382	0.00186167
2394	0.00345739
2406	0.00381199
2418	0.00381199
2430	0.00372334
2442	0.00310279
2454	0.00301413
2466	0.00257088
2478	0.00230493
2490	0.00283683
2502	0.00257088
2514	0.00221628
2526	0.00283683
2538	0.00248223
2550	0.00328009
2562	0.00354604
2574	0.00345739
2586	0.0043439
2598	0.00523041
2610	0.00602827
2622	0.0085105
2634	0.0110814
2646	0.0144501
2658	0.0164891
2670	0.0166664
2682	0.0166664
2694	0.0160458
2706	0.0180848
2718	0.0216308
2730	0.0258861
2742	0.0281024
2754	0.0300527
2766	0.0320917
2778	0.0347512
2790	0.0423752
2802	0.0503538
2814	0.0625876
2826	0.0801405
2838	0.107711
2850	0.154075
2862	0.234836
2874	0.4101
2886	0.547065
2898	0.47712
2910	0.436961
2922	0.475169
2934	0.506906
2946	0.551143
2958	0.655397
2970	0.859294
2982	0.823213
2994	0.467545
3006	0.151771
3018	0.0408681
3030	0.0201238
3042	0.0162231
3054	0.0137409
3066	0.0116133
3078	0.00957431
3090	0.0086878
3102	0.00824454
3114	0.00709208
3126	0.00780129
3138	0.00842185
3150	0.00877645
3162	0.0088651
3174	0.0092197
3186	0.00948566
3198	0.00975161
3210	0.00780129
3222	0.00540771
3234	0.00363469
3246	0.00168437
3258	0.00141842
3270	0.00159572
3282	0.00186167
3294	0.00221628
3306	0.00177302
3318	0.00248223
3330	0.00443255
3342	0.00372334
3354	0.0046985
3366	0.00629422
3378	0.00505311
3390	0.00585097
3402	0.00656017
3414	0.0085105
3426	0.0088651
3438	0.0088651
3450	0.00957431
3462	0.00833319
3474	0.00797859
3486	0.00664883
3498	0.00762399
3510	0.00930836
3522	0.0108154
3534	0.0103722
3546	0.0158685
3558	0.0374994
3570	0.110991
3582	0.22083
3594	0.245297
3606	0.142728
3618	0.0637401
3630	0.0461872
3642	0.0708321
3654	0.128633
3666	0.164802
3678	0.128633
3690	0.0517722
3702	0.0104608
3714	0.00478715
3726	0.00265953
3738	0.00381199
3750	0.00203897
3762	0.000975161
3774	0.00203897
3786	0.00159572
3798	0.0039893
3810	0.0039893
3822	0.00301413
3834	0.00354604
3846	0.00328009
3858	0.00257088
3870	0.00647152
3882	0.00726938
3894	0.00195032
3906	0.00558501
3918	0.00593962
3930	0.00638287
3942	0.00443255
3954	0.000797859
3966	0.00088651
