Infrared Spectrum: Ethylphenylmalonic acid diethyl ester
Formula: C 15 H 20 O 4
CAS: 76-67-5
Origin: Sadtler Research Labs Under US-EPA Contract
1/CM	ABSORBANCE
450	0
462	0.0336722
474	0.0502113
486	0.0589264
498	0.0498151
510	0.0539746
522	0.0493199
534	0.0613033
546	0.063185
558	0.0435758
570	0.0451604
582	0.0475373
594	0.041397
606	0.0536775
618	0.0645715
630	0.0417932
642	0.0454575
654	0.0471411
666	0.0519939
678	0.0721972
690	0.142711
702	0.148455
714	0.0939852
726	0.08527
738	0.112208
750	0.0923016
762	0.0701175
774	0.0732866
786	0.0672454
798	0.0644724
810	0.0624917
822	0.060511
834	0.0592235
846	0.0640763
858	0.0830912
870	0.0800211
882	0.0567476
894	0.0488247
906	0.0524891
918	0.0529843
930	0.0586293
942	0.0679387
954	0.071504
966	0.0758616
978	0.0702165
990	0.0700185
1002	0.0867555
1014	0.151327
1026	0.31642
1038	0.268388
1050	0.136075
1062	0.131718
1074	0.173907
1086	0.236993
1098	0.330384
1110	0.381487
1122	0.443186
1134	0.262148
1146	0.172323
1158	0.204509
1170	0.315826
1182	0.400502
1194	0.448534
1206	0.580846
1218	0.749603
1230	0.86191
1242	0.642942
1254	0.3493
1266	0.195101
1278	0.138551
1290	0.129737
1302	0.167074
1314	0.139542
1326	0.100621
1338	0.0970553
1350	0.0778423
1362	0.0896276
1374	0.112802
1386	0.101611
1398	0.0933909
1410	0.0733857
1422	0.0712069
1434	0.0803182
1446	0.116466
1458	0.12122
1470	0.127162
1482	0.101413
1494	0.111911
1506	0.0944803
1518	0.0568467
1530	0.0534794
1542	0.0499141
1554	0.0489238
1566	0.0502113
1578	0.0518949
1590	0.0596197
1602	0.0690281
1614	0.0538756
1626	0.0489238
1638	0.0492209
1650	0.0486267
1662	0.0526872
1674	0.0552621
1686	0.0610062
1698	0.076951
1710	0.10478
1722	0.153011
1734	0.39248
1746	0.99036
1758	0.604615
1770	0.255018
1782	0.120725
1794	0.08527
1806	0.0672454
1818	0.0579361
1830	0.0505084
1842	0.046844
1854	0.046646
1866	0.0478344
1878	0.049518
1890	0.0490228
1902	0.0448633
1914	0.0424864
1926	0.0431797
1938	0.0465469
1950	0.046844
1962	0.0444672
1974	0.0407038
1986	0.0402086
1998	0.0393173
2010	0.0390202
2022	0.0395154
2034	0.0420903
2046	0.0431797
2058	0.0442691
2070	0.0453585
2082	0.0447643
2094	0.041199
2106	0.0397134
2118	0.0391192
2130	0.0383269
2142	0.0380298
2154	0.0383269
2166	0.0381289
2178	0.0378318
2190	0.0378318
2202	0.0377327
2214	0.0369404
2226	0.0375346
2238	0.0377327
2250	0.0373366
2262	0.0374356
2274	0.0376337
2286	0.0379308
2298	0.038624
2310	0.0403077
2322	0.0393173
2334	0.0394163
2346	0.0429816
2358	0.0394163
2370	0.0432787
2382	0.0415951
2394	0.0388221
2406	0.0390202
2418	0.0390202
2430	0.0390202
2442	0.0382279
2454	0.0382279
2466	0.0375346
2478	0.0371385
2490	0.0373366
2502	0.0368414
2514	0.0375346
2526	0.0377327
2538	0.0371385
2550	0.0373366
2562	0.0372375
2574	0.0368414
2586	0.0367424
2598	0.0359501
2610	0.0344645
2622	0.03288
2634	0.0337713
2646	0.0318896
2658	0.0318896
2670	0.035851
2682	0.0375346
2694	0.0368414
2706	0.0369404
2718	0.038426
2730	0.0396144
2742	0.0378318
2754	0.0404067
2766	0.0417932
2778	0.0421893
2790	0.0409019
2802	0.0418922
2814	0.0426845
2826	0.0456556
2838	0.0476363
2850	0.0512016
2862	0.0573418
2874	0.0694242
2886	0.103889
2898	0.114783
2910	0.110623
2922	0.108444
2934	0.137561
2946	0.224416
2958	0.178562
2970	0.208273
2982	0.327215
2994	0.272349
3006	0.154694
3018	0.103295
3030	0.0947775
3042	0.0941832
3054	0.0831902
3066	0.124686
3078	0.101116
3090	0.0722963
3102	0.0696223
3114	0.0567476
3126	0.0476363
3138	0.043972
3150	0.0429816
3162	0.0417932
3174	0.0403077
3186	0.0387231
3198	0.0374356
3210	0.0370395
3222	0.0372375
3234	0.0383269
3246	0.0374356
3258	0.0381289
3270	0.038624
3282	0.0392183
3294	0.038624
3306	0.0375346
3318	0.0375346
3330	0.0364452
3342	0.0374356
3354	0.0363462
3366	0.0360491
3378	0.0349597
3390	0.0377327
3402	0.0370395
3414	0.0365443
3426	0.0365443
3438	0.0364452
3450	0.0369404
3462	0.0397134
3474	0.038525
3486	0.0407038
3498	0.0387231
3510	0.0353559
3522	0.0354549
3534	0.0347616
3546	0.0337713
3558	0.0344645
3570	0.0352568
3582	0.0337713
3594	0.0335732
3606	0.0332761
3618	0.0352568
3630	0.0340684
3642	0.0343655
3654	0.0348607
3666	0.0342665
3678	0.033078
3690	0.0334742
3702	0.0323848
3714	0.0373366
3726	0.0350587
3738	0.035851
3750	0.0364452
3762	0.035752
3774	0.0349597
3786	0.035752
3798	0.0359501
3810	0.0364452
3822	0.0362472
3834	0.0366433
3846	0.0402086
3858	0.0382279
3870	0.0360491
3882	0.0367424
3894	0.0348607
3906	0.0376337
3918	0.0373366
3930	0.0338703
3942	0.0367424
3954	0.0347616
3966	0.0370395
