Infrared Spectrum: Propanedioic acid, ethyl(1-methylpropyl)-, diethyl ester
Formula: C 13 H 24 O 4
CAS: 76-71-1
Origin: Sadtler Research Labs Under US-EPA Contract
1/CM	ABSORBANCE
450	0.0301218
462	0
474	0.0193271
486	0.0321902
498	0.0252092
510	0.0303157
522	0.0163537
534	0.0184868
546	0.0236579
558	0.022559
570	0.0179696
582	0.0221712
594	0.0210723
606	0.0180989
618	0.0275362
630	0.020943
642	0.0180989
654	0.0178404
666	0.0138327
678	0.0245628
690	0.0300571
702	0.02954
714	0.0242396
726	0.02327
738	0.0308328
750	0.0252738
762	0.0340001
774	0.031156
786	0.0417568
798	0.0314146
810	0.0306389
822	0.0316731
834	0.0330952
846	0.0348404
858	0.0396883
870	0.0486085
882	0.0317377
894	0.024175
906	0.0215248
918	0.0221065
930	0.0244335
942	0.040464
954	0.0502891
966	0.0362625
978	0.0326427
990	0.0400762
1002	0.0476389
1014	0.0862931
1026	0.175624
1038	0.193335
1050	0.0982513
1062	0.0834489
1074	0.0915935
1086	0.131411
1098	0.246792
1110	0.303415
1122	0.258362
1134	0.281567
1146	0.264891
1158	0.196826
1170	0.138327
1182	0.147248
1194	0.243948
1206	0.3581
1218	0.521572
1230	0.631071
1242	0.407872
1254	0.195468
1266	0.121263
1278	0.0917874
1290	0.092563
1302	0.110339
1314	0.0866163
1326	0.0621827
1338	0.0611485
1350	0.0458291
1362	0.0542968
1374	0.0903007
1386	0.0906239
1398	0.0715554
1410	0.04208
1422	0.0306389
1434	0.0393652
1446	0.0648329
1458	0.0829318
1470	0.100837
1482	0.0624413
1494	0.0329659
1506	0.0217833
1518	0.0196503
1530	0.0203613
1542	0.0100837
1554	0.0140913
1566	0.0164183
1578	0.0146084
1590	0.0141559
1602	0.0137035
1614	0.0151255
1626	0.0160305
1638	0.0130571
1650	0.00995441
1662	0.0193271
1674	0.0206198
1686	0.0215894
1698	0.0354868
1710	0.0595325
1722	0.119711
1734	0.428944
1746	0.621956
1758	0.332826
1770	0.112924
1782	0.0505477
1794	0.0307035
1806	0.0215248
1818	0.0170647
1830	0.0142852
1842	0.0126692
1854	0.010924
1866	0.00976049
1878	0.0116997
1890	0.0111179
1902	0.010924
1914	0.00943729
1926	0.00885554
1938	0.00866163
1950	0.00866163
1962	0.00859699
1974	0.00827379
1986	0.00827379
1998	0.00833843
2010	0.00775668
2022	0.00756276
2034	0.00704565
2046	0.00685173
2058	0.00749812
2070	0.00827379
2082	0.00820915
2094	0.00775668
2106	0.00685173
2118	0.00607607
2130	0.00594679
2142	0.00594679
2154	0.00536504
2166	0.00581751
2178	0.0053004
2190	0.00504184
2202	0.00510648
2214	0.00465401
2226	0.00458937
2238	0.00471865
2250	0.0049772
2262	0.00426617
2274	0.00458937
2286	0.0049772
2298	0.00652854
2310	0.00730421
2322	0.00549432
2334	0.00303803
2346	0.00698101
2358	0.00342587
2370	0.00387834
2382	0.00633462
2394	0.00426617
2406	0.00446009
2418	0.00420154
2430	0.0041369
2442	0.00394298
2454	0.00336123
2466	0.00271484
2478	0.00258556
2490	0.00213309
2502	0.00213309
2514	0.00219773
2526	0.00252092
2538	0.00252092
2550	0.00271484
2562	0.00277948
2574	0.00277948
2586	0.00239164
2598	0.00329659
2610	0.00329659
2622	0.00394298
2634	0.00336123
2646	0.00349051
2658	0.00336123
2670	0.00336123
2682	0.00400762
2694	0.00400762
2706	0.00439545
2718	0.00471865
2730	0.00626998
2742	0.00827379
2754	0.00866163
2766	0.00840307
2778	0.00898482
2790	0.00885554
2802	0.0101483
2814	0.0120229
2826	0.0146731
2838	0.0173879
2850	0.0219773
2862	0.0291522
2874	0.053715
2886	0.122556
2898	0.114605
2910	0.0998026
2922	0.10659
2934	0.14951
2946	0.240457
2958	0.197989
2970	0.298309
2982	0.362496
2994	0.252803
3006	0.121909
3018	0.0595325
3030	0.0332244
3042	0.0228822
3054	0.0180989
3066	0.0152548
3078	0.0137681
3090	0.0119582
3102	0.010924
3114	0.0104715
3126	0.00924338
3138	0.00866163
3150	0.00827379
3162	0.00801524
3174	0.00788596
3186	0.00717493
3198	0.00620534
3210	0.00549432
3222	0.00542968
3234	0.00491256
3246	0.00491256
3258	0.00594679
3270	0.00523576
3282	0.00549432
3294	0.00484793
3306	0.00568823
3318	0.00633462
3330	0.00562359
3342	0.00542968
3354	0.00588215
3366	0.00626998
3378	0.00588215
3390	0.00685173
3402	0.00678709
3414	0.00723957
3426	0.00711029
3438	0.00652854
3450	0.00782132
3462	0.0100837
3474	0.0116997
3486	0.00937266
3498	0.00807988
3510	0.00698101
3522	0.00685173
3534	0.00588215
3546	0.00788596
3558	0.00756276
3570	0.00711029
3582	0.0076274
3594	0.00575287
3606	0.00723957
3618	0.00698101
3630	0.00433081
3642	0.00672246
3654	0.00355515
3666	0.00917874
3678	0.00193917
3690	0.00400762
3702	0.00782132
3714	0.00639926
3726	0.00736885
3738	0.00491256
3750	0.00478329
3762	0.00956657
3774	0.00549432
3786	0.00749812
3798	0.0079506
3810	0.00898482
3822	0.00297339
3834	0.00723957
3846	0.00963121
3858	0.00394298
3870	0.00607607
3882	0.010019
3894	0.00672246
3906	0.00588215
3918	0.0079506
3930	0.00523576
3942	0.00672246
3954	0.00782132
3966	0.00685173
