Infrared Spectrum: Sulfone, bis(2-bromoethyl)
Formula: C 4 H 8 Br 2 O 2 S
CAS: 7617-67-6
Origin: Sadtler Research Labs Under US-EPA Contract
1/CM	ABSORBANCE
450	0.0480721
462	0
474	0.0320706
486	0.0818306
498	0.108297
510	0.102086
522	0.0513129
534	0.0393624
546	0.0067517
558	0.0101951
570	0.0202551
582	0.0191748
594	0.0148537
606	0.0130983
618	0.0286947
630	0.0246437
642	0.0112078
654	0.009925
666	0.0192423
678	0.017757
690	0.0187697
702	0.0355815
714	0.0433459
726	0.05955
738	0.0798726
750	0.10877
762	0.126122
774	0.123624
786	0.108702
798	0.0717706
810	0.0332184
822	0.0245762
834	0.0216054
846	0.0255214
858	0.0321381
870	0.0519881
882	0.0378095
894	0.0227532
906	0.0172844
918	0.0170143
930	0.0225507
942	0.0332184
954	0.0311929
966	0.0459116
978	0.067517
990	0.0265342
1002	0.0244412
1014	0.0423332
1026	0.0587398
1038	0.0343662
1050	0.0164066
1062	0.0190398
1074	0.0183646
1086	0.023766
1098	0.0345687
1110	0.0512454
1122	0.0949289
1134	0.250826
1146	0.481936
1158	0.235364
1170	0.0899326
1182	0.0737286
1194	0.0513129
1206	0.0507728
1218	0.0379446
1230	0.0280196
1242	0.0347037
1254	0.0635335
1266	0.110593
1278	0.15799
1290	0.121801
1302	0.0579296
1314	0.0534735
1326	0.0881097
1338	0.250826
1350	0.620954
1362	0.424277
1374	0.102221
1386	0.0632634
1398	0.0593474
1410	0.043886
1422	0.0360541
1434	0.0282896
1446	0.0249813
1458	0.0228207
1470	0.0149888
1482	0.01006
1494	0.00668418
1506	0.0035784
1518	0.00789949
1530	0.00459116
1542	0.0115454
1554	0.00965493
1566	0.00924983
1578	0.0141786
1590	0.0126257
1602	0.0182296
1614	0.0116129
1626	0.0108702
1638	0.0166092
1650	0.0244412
1662	0.0212003
1674	0.025859
1686	0.0224832
1698	0.0191073
1710	0.027817
1722	0.0254539
1734	0.00695425
1746	0.00540136
1758	0.00729184
1770	0.00850714
1782	0.00702177
1794	0.00621156
1806	0.00546888
1818	0.00432109
1830	0.00472619
1842	0.00236309
1854	0.00290323
1866	0.00405102
1878	0.00330833
1890	0.00465867
1902	0.00492874
1914	0.00560391
1926	0.00621156
1938	0.00695425
1950	0.00796701
1962	0.00580646
1974	0.00479371
1986	0.00411854
1998	0.00445612
2010	0.00432109
2022	0.00445612
2034	0.00472619
2046	0.00405102
2058	0.00337585
2070	0.00324082
2082	0.00236309
2094	0.00283571
2106	0.00249813
2118	0.00351088
2130	0.00371343
2142	0.00378095
2154	0.00371343
2166	0.00344337
2178	0.00330833
2190	0.0035784
2202	0.00310578
2214	0.00297075
2226	0.00297075
2238	0.00337585
2250	0.00324082
2262	0.0039835
2274	0.00459116
2286	0.00553639
2298	0.00607653
2310	0.00614405
2322	0.00560391
2334	0.00465867
2346	0.00816956
2358	0.00600901
2370	0.00735935
2382	0.00513129
2394	0.00432109
2406	0.0027682
2418	0.00324082
2430	0.00432109
2442	0.00297075
2454	0.00445612
2466	0.00513129
2478	0.0059415
2490	0.00668418
2502	0.00425357
2514	0.0027682
2526	0.00330833
2538	0.00148537
2550	0.00135034
2562	0.00121531
2574	0.00222806
2586	0.00189048
2598	0.00216054
2610	0.00249813
2622	0.00540136
2634	0.0035784
2646	0.00364592
2658	0.00243061
2670	0.00216054
2682	0.00283571
2694	0.00324082
2706	0.00330833
2718	0.00222806
2730	0.00297075
2742	0.00256565
2754	0.0035784
2766	0.00243061
2778	0.00391599
2790	0.0035784
2802	0.0043886
2814	0.00526633
2826	0.00668418
2838	0.00823707
2850	0.0131658
2862	0.0126932
2874	0.00999252
2886	0.0106677
2898	0.0130983
2910	0.0173519
2922	0.0245762
2934	0.0225507
2946	0.0226857
2958	0.0141786
2970	0.0141786
2982	0.0220781
2994	0.0166092
3006	0.0095199
3018	0.00985748
3030	0.0126257
3042	0.00924983
3054	0.00560391
3066	0.00499626
3078	0.00465867
3090	0.00499626
3102	0.00533384
3114	0.00499626
3126	0.00519881
3138	0.00411854
3150	0.00479371
3162	0.00459116
3174	0.00526633
3186	0.00519881
3198	0.00425357
3210	0.00459116
3222	0.00472619
3234	0.00472619
3246	0.00452364
3258	0.0039835
3270	0.0039835
3282	0.00452364
3294	0.00411854
3306	0.0039835
3318	0.0039835
3330	0.00472619
3342	0.00465867
3354	0.00384847
3366	0.00384847
3378	0.0039835
3390	0.00378095
3402	0.00337585
3414	0.00384847
3426	0.00371343
3438	0.00418605
3450	0.00371343
3462	0.00445612
3474	0.00506377
3486	0.00499626
3498	0.00492874
3510	0.00371343
3522	0.0035784
3534	0.00384847
3546	0.00249813
3558	0.00236309
3570	0.00499626
3582	0.00330833
3594	0.00553639
3606	0.00411854
3618	0.00506377
3630	0.00776445
3642	0.00384847
3654	0.00918231
3666	0.00465867
3678	0.00391599
3690	0.00411854
3702	0.00128282
3714	0.00182296
3726	0.00108027
3738	0.00108027
3750	0.0101951
3762	0.000877721
3774	0.000945238
3786	0.00297075
3798	0.00587398
3810	0.00236309
3822	0.00668418
3834	0.00540136
3846	0.00384847
3858	0.00472619
3870	0.00330833
3882	0.00337585
3894	0.00236309
3906	0.00472619
3918	0.0059415
3930	0.000810204
3942	0.00216054
3954	0.00513129
3966	0.00648163
