Infrared Spectrum: Phosphonic acid, diethyl ester
Formula: C 4 H 11 O 3 P
CAS: 762-04-9
Origin: Sadtler Research Labs Under US-EPA Contract
1/CM	ABSORBANCE
450	0.0213092
462	0.0262782
474	0.023507
486	0.0193025
498	0.020927
510	0.0231248
522	0.0326805
534	0.0523652
546	0.0721455
558	0.0684188
570	0.035165
582	0.0131869
594	0.00774012
606	0.00449118
618	0.00525563
630	0.00296227
642	0.00382228
654	0.00573342
666	0.00296227
678	0.00248448
690	0.0106068
702	0.007549
714	0.0108935
726	0.0237937
738	0.0423318
750	0.0561875
762	0.0516963
774	0.0606787
786	0.064501
798	0.0480652
810	0.0382228
822	0.0256093
834	0.0240804
846	0.0193025
858	0.0239848
870	0.0251315
882	0.0311516
894	0.0406117
906	0.0491163
918	0.0738656
930	0.139131
942	0.268133
954	0.435453
966	0.54305
978	0.899956
990	0.95557
1002	0.476734
1014	0.284855
1026	0.223794
1038	0.279504
1050	0.403346
1062	0.53445
1074	0.464025
1086	0.334258
1098	0.263833
1110	0.203632
1122	0.133302
1134	0.102819
1146	0.0916392
1158	0.0845679
1170	0.0825612
1182	0.0640232
1194	0.0426184
1206	0.0306738
1218	0.0315338
1230	0.0426184
1242	0.0620165
1254	0.0885813
1266	0.204683
1278	0.39293
1290	0.375157
1302	0.238032
1314	0.126517
1326	0.0479696
1338	0.025227
1350	0.0212137
1362	0.0288582
1374	0.045294
1386	0.0622076
1398	0.0755856
1410	0.0469185
1422	0.0268515
1434	0.0257048
1446	0.0283804
1458	0.021787
1470	0.021787
1482	0.0205448
1494	0.0155758
1506	0.0106068
1518	0.00678455
1530	0.00516008
1542	0.00248448
1554	0.00353561
1566	0.00324894
1578	0.00162447
1590	0.00410895
1602	0.00324894
1614	0.00363117
1626	0.00229337
1638	0.00210225
1650	0.00296227
1662	0.00430006
1674	0.00458674
1686	0.00439562
1698	0.00506452
1710	0.00716677
1722	0.00707122
1734	0.00640232
1746	0.00697566
1758	0.00649788
1770	0.00544675
1782	0.00525563
1794	0.00640232
1806	0.00793123
1818	0.00840902
1830	0.007549
1842	0.00812234
1854	0.0088868
1866	0.00774012
1878	0.00697566
1890	0.00582898
1902	0.00449118
1914	0.00344005
1926	0.00334449
1938	0.00219781
1950	0.00191114
1962	0.00162447
1974	0.00114668
1986	0.00105113
1998	0.000573342
2010	0.00114668
2022	0.00095557
2034	0.00105113
2046	0.000286671
2058	0.000477785
2070	0.000860013
2082	0.000668899
2094	0.000860013
2106	0.00124224
2118	0.00114668
2130	0.00172003
2142	0.00114668
2154	0.0013378
2166	0.00191114
2178	0.0020067
2190	0.0020067
2202	0.00152891
2214	0.0013378
2226	0.00143335
2238	0.00124224
2250	0.00248448
2262	0.00305782
2274	0.00353561
2286	0.00353561
2298	0.00420451
2310	0.00496896
2322	0.00697566
2334	0.00774012
2346	0.00917347
2358	0.0148113
2370	0.0182514
2382	0.027616
2394	0.0397517
2406	0.0491163
2418	0.0602965
2430	0.0902058
2442	0.0930725
2454	0.0539897
2466	0.0250359
2478	0.012518
2490	0.00678455
2502	0.00477785
2514	0.00382228
2526	0.00382228
2538	0.00391784
2550	0.00449118
2562	0.00410895
2574	0.00430006
2586	0.00420451
2598	0.00458674
2610	0.00439562
2622	0.00496896
2634	0.00496896
2646	0.00506452
2658	0.00506452
2670	0.00525563
2682	0.00516008
2694	0.00525563
2706	0.0062112
2718	0.0068801
2730	0.00812234
2742	0.00917347
2754	0.00946014
2766	0.0103202
2778	0.0115624
2790	0.0121357
2802	0.011658
2814	0.0130913
2826	0.0151936
2838	0.0179647
2850	0.0218826
2862	0.0300049
2874	0.0448162
2886	0.0596276
2898	0.0690877
2910	0.0868613
2922	0.0928814
2934	0.107024
2946	0.131486
2958	0.115337
2970	0.124415
2982	0.189776
2994	0.216532
3006	0.143527
3018	0.0810323
3030	0.0451985
3042	0.0258004
3054	0.0161491
3066	0.0118491
3078	0.00936459
3090	0.00812234
3102	0.00745345
3114	0.00707122
3126	0.00602009
3138	0.00592453
3150	0.00573342
3162	0.00573342
3174	0.00582898
3186	0.00554231
3198	0.00611565
3210	0.00544675
3222	0.00449118
3234	0.00506452
3246	0.00449118
3258	0.00353561
3270	0.00315338
3282	0.00324894
3294	0.00277115
3306	0.00305782
3318	0.00191114
3330	0.00248448
3342	0.00210225
3354	0.00248448
3366	0.00305782
3378	0.00229337
3390	0.00286671
3402	0.00344005
3414	0.00296227
3426	0.00296227
3438	0.0026756
3450	0.00258004
3462	0.00248448
3474	0.00210225
3486	0.00229337
3498	0.00229337
3510	0.0020067
3522	0.00219781
3534	0.0026756
3546	0.0020067
3558	0.00277115
3570	0.00219781
3582	0.00277115
3594	0.00277115
3606	0.00248448
3618	0.00305782
3630	0.00286671
3642	0.00707122
3654	0.00898236
3666	0.0100335
3678	0.00802679
3690	0.007549
3702	0.00707122
3714	0.00506452
3726	0.00602009
3738	0.00506452
3750	0.00582898
3762	0.00678455
3774	0.00850457
3786	0.00812234
3798	0.00802679
3810	0.00917347
3822	0.00869569
3834	0.00946014
3846	0.00860013
3858	0.0082179
3870	0.00907791
3882	0.0095557
3894	0.00974681
3906	0.00965126
3918	0.00926903
3930	0.0105113
3942	0.010129
3954	0.00258004
3966	0.00334449
