Infrared Spectrum: N-tert-Butylacetamide
Formula: C 6 H 13 N O
CAS: 762-84-5
Origin: Sadtler Research Labs Under US-EPA Contract
1/CM	ABSORBANCE
450	0.0492178
462	0.0590237
474	0.0671323
486	0.0491235
498	0.0288518
510	0.0297947
522	0.0195174
534	0.0151802
546	0.0198003
558	0.00669438
570	0.0050915
582	0.00594008
594	0.0132945
606	0.0202717
618	0.0396005
630	0.024326
642	0.0102773
654	0.00160288
666	0.000660009
678	0.0080144
690	0.00980585
702	0.0100887
714	0.00688295
726	0.00546865
738	0.00594008
750	0.0111259
762	0.0158402
774	0.0113144
786	0.0136716
798	0.0163117
810	0.0269661
822	0.0435606
834	0.0612866
846	0.0600608
858	0.050255
870	0.0351691
882	0.0231003
894	0.0173488
906	0.0154631
918	0.0176317
930	0.0249861
942	0.0527064
954	0.0665666
966	0.0464835
978	0.0265889
990	0.0224403
1002	0.0295118
1014	0.0320576
1026	0.0323404
1038	0.031209
1050	0.0329062
1062	0.0286632
1074	0.0225346
1086	0.0172545
1098	0.0158402
1110	0.0154631
1122	0.0147088
1134	0.0130116
1146	0.0132945
1158	0.0221574
1170	0.0326233
1182	0.0506321
1194	0.101736
1206	0.227137
1218	0.346788
1230	0.245335
1242	0.159911
1254	0.195834
1266	0.369039
1278	0.368191
1290	0.151613
1302	0.0651523
1314	0.0428063
1326	0.0343205
1338	0.0425234
1350	0.115313
1362	0.279184
1374	0.336416
1386	0.217992
1398	0.194326
1410	0.141808
1422	0.101547
1434	0.172639
1446	0.345279
1458	0.395723
1470	0.322179
1482	0.486898
1494	0.820485
1506	0.723936
1518	0.266266
1530	0.111919
1542	0.0767496
1554	0.0554408
1566	0.0421463
1578	0.0315861
1590	0.0284747
1602	0.0231946
1614	0.0234775
1626	0.0241375
1638	0.0265889
1650	0.0356405
1662	0.0459178
1674	0.0693952
1686	0.174337
1698	0.541302
1710	0.912887
1722	0.76363
1734	0.330287
1746	0.10249
1758	0.0410148
1770	0.0274375
1782	0.0244203
1794	0.0193288
1806	0.0153688
1818	0.0116916
1830	0.0113144
1842	0.00933441
1854	0.0086744
1866	0.0102773
1878	0.0094287
1890	0.0105601
1902	0.00980585
1914	0.0080144
1926	0.00499721
1938	0.00480864
1950	0.00396005
1962	0.00330005
1974	0.00358291
1986	0.00348862
1998	0.00348862
2010	0.00282861
2022	0.00282861
2034	0.00132002
2046	0.00264004
2058	0.00207431
2070	0.00226289
2082	0.00169717
2094	0.00330005
2106	0.00348862
2118	0.00424291
2130	0.00462006
2142	0.0043372
2154	0.00462006
2166	0.00367719
2178	0.00405434
2190	0.00339433
2202	0.00235717
2214	0.00245146
2226	0.00301718
2238	0.00282861
2250	0.00235717
2262	0.00405434
2274	0.00452578
2286	0.00565722
2298	0.00622294
2310	0.00782582
2322	0.00612866
2334	0.00254575
2346	0.000282861
2358	0.00141431
2370	0.00311147
2382	0.00311147
2394	0.00396005
2406	0.00235717
2418	0.00235717
2430	0.00113144
2442	0.00103716
2454	0.000848583
2466	0.000754296
2478	0.000471435
2490	0.00094287
2502	0.00132002
2514	0.00113144
2526	0.00188574
2538	0.00198003
2550	0.00179145
2562	0.00122573
2574	0.00282861
2586	0.0029229
2598	0.0029229
2610	0.00367719
2622	0.00339433
2634	0.00396005
2646	0.00424291
2658	0.00471435
2670	0.00546865
2682	0.00546865
2694	0.00565722
2706	0.00763725
2718	0.00990014
2730	0.0105601
2742	0.00990014
2754	0.00971156
2766	0.00980585
2778	0.00905155
2790	0.00990014
2802	0.0110316
2814	0.0139545
2826	0.0174431
2838	0.021026
2850	0.0339433
2862	0.0590237
2874	0.0976813
2886	0.121819
2898	0.131719
2910	0.151048
2922	0.19772
2934	0.236472
2946	0.246089
2958	0.322744
2970	0.457858
2982	0.405906
2994	0.210826
3006	0.105507
3018	0.064398
3030	0.0363005
3042	0.0277204
3054	0.0228175
3066	0.0222517
3078	0.0188574
3090	0.0181974
3102	0.0132002
3114	0.0120687
3126	0.00886298
3138	0.0103716
3150	0.00876869
3162	0.00829726
3174	0.00980585
3186	0.00999442
3198	0.010843
3210	0.00876869
3222	0.010843
3234	0.00914584
3246	0.00933441
3258	0.00678866
3270	0.00631723
3282	0.00518579
3294	0.00641152
3306	0.00622294
3318	0.00490292
3330	0.0050915
3342	0.00301718
3354	0.00518579
3366	0.00480864
3378	0.00603437
3390	0.0086744
3402	0.0143316
3414	0.0171602
3426	0.0176317
3438	0.0274375
3450	0.0436549
3462	0.0576094
3474	0.0390348
3486	0.0153688
3498	0.00565722
3510	0.0050915
3522	0.00282861
3534	0.00282861
3546	0.00537436
3558	0.00311147
3570	0.00264004
3582	0.00254575
3594	0.00499721
3606	0.00518579
3618	0.00528007
3630	0.00330005
3642	0.00396005
3654	0.00528007
3666	0.00471435
3678	0.0021686
3690	0.000848583
3702	0.00424291
3714	0.00273432
3726	0.00414863
3738	0.00414863
3750	0.00678866
3762	0.00584579
3774	0.00471435
3786	0.00603437
3798	0.00622294
3810	0.00622294
3822	0.00669438
3834	0.00980585
3846	0.0072601
3858	0.00754296
3870	0.00490292
3882	0.00603437
3894	0.00546865
3906	0.00480864
3918	0.00499721
3930	0.00556293
3942	0.00443149
3954	0
3966	0.000282861
