Infrared Spectrum: Propanoic acid, 3-ethoxy-, ethyl ester
Formula: C 7 H 14 O 3
CAS: 763-69-9
Origin: Sadtler Research Labs Under US-EPA Contract
1/CM	ABSORBANCE
450	0.00608695
462	0.00460491
474	0.00217013
486	0.00391682
498	0.00868052
510	0.00783364
522	0.0109036
534	0.00629867
546	0.00608695
558	0.0068809
570	0.0102684
582	0.00973912
594	0.0128091
606	0.0176257
618	0.0148733
630	0.0159319
642	0.01662
654	0.0110094
666	0.00905103
678	0.0132325
690	0.0122268
702	0.0115387
714	0.01138
726	0.0111153
738	0.00756899
750	0.00624574
762	0.0124915
774	0.0147145
786	0.0152438
798	0.0150851
810	0.0175198
822	0.0180491
834	0.0217013
846	0.0228128
858	0.0280529
870	0.0239773
882	0.0190019
894	0.0171493
906	0.0178374
918	0.0194782
930	0.02493
942	0.0227599
954	0.0182079
966	0.0178374
978	0.0214896
990	0.028
1002	0.039327
1014	0.0604461
1026	0.108507
1038	0.141588
1050	0.145981
1062	0.182344
1074	0.186102
1086	0.1653
1098	0.233845
1110	0.346692
1122	0.416294
1134	0.398775
1146	0.284446
1158	0.245648
1170	0.334782
1182	0.43879
1194	0.393799
1206	0.237656
1218	0.178374
1230	0.202987
1242	0.209497
1254	0.213202
1266	0.173928
1278	0.117769
1290	0.104219
1302	0.11073
1314	0.114805
1326	0.0991908
1338	0.0871228
1350	0.111682
1362	0.125497
1374	0.157573
1386	0.159425
1398	0.0879697
1410	0.0681209
1422	0.0654744
1434	0.0539886
1446	0.0532476
1458	0.0540415
1470	0.0587523
1482	0.0454669
1494	0.0276824
1506	0.0176786
1518	0.0127032
1530	0.0105331
1542	0.0079395
1554	0.00831001
1566	0.00682797
1578	0.00698676
1590	0.0074102
1602	0.0068809
1614	0.0068809
1626	0.00841587
1638	0.00772778
1650	0.00725141
1662	0.00936861
1674	0.0109036
1686	0.0132854
1698	0.0189489
1710	0.0323932
1722	0.0542533
1734	0.116499
1746	0.315992
1758	0.5293
1770	0.342722
1782	0.135077
1794	0.0738903
1806	0.0399092
1818	0.0207486
1830	0.0128091
1842	0.00926275
1854	0.00778071
1866	0.00672211
1878	0.0068809
1890	0.00714555
1902	0.00730434
1914	0.00714555
1926	0.00751606
1938	0.00815122
1950	0.00799243
1962	0.00804536
1974	0.00751606
1986	0.00645746
1998	0.00598109
2010	0.00539886
2022	0.00592816
2034	0.00629867
2046	0.00629867
2058	0.00587523
2070	0.0047637
2082	0.00481663
2094	0.00471077
2106	0.00471077
2118	0.00471077
2130	0.00460491
2142	0.00418147
2154	0.00412854
2166	0.00375803
2178	0.00354631
2190	0.00349338
2202	0.00296408
2214	0.00328166
2226	0.00354631
2238	0.00338752
2250	0.00333459
2262	0.00344045
2274	0.00328166
2286	0.00280529
2298	0.00328166
2310	0.00471077
2322	0.00571644
2334	0.00629867
2346	0.00613988
2358	0.0084688
2370	0.00619281
2382	0.00322873
2394	0.00259357
2406	0.00248771
2418	0.00254064
2430	0.00248771
2442	0.00195841
2454	0.00190548
2466	0.00190548
2478	0.00190548
2490	0.0015879
2502	0.00132325
2514	0.00132325
2526	0.00121739
2538	0.00063516
2550	0.00127032
2562	0.00132325
2574	0.00127032
2586	0.00153497
2598	0.00232892
2610	0.00338752
2622	0.00338752
2634	0.00291115
2646	0.00259357
2658	0.00269943
2670	0.00338752
2682	0.00396975
2694	0.00571644
2706	0.0074102
2718	0.00836294
2730	0.0104272
2742	0.0120151
2754	0.0130737
2766	0.0138677
2778	0.0168317
2790	0.0194782
2802	0.0247183
2814	0.0299584
2826	0.0320756
2838	0.0405444
2850	0.0649451
2862	0.118616
2874	0.177951
2886	0.171758
2898	0.131108
2910	0.115758
2922	0.103372
2934	0.124015
2946	0.156779
2958	0.130102
2970	0.15138
2982	0.240514
2994	0.21659
3006	0.10713
3018	0.0546767
3030	0.0284763
3042	0.0172552
3054	0.0119622
3066	0.00804536
3078	0.00587523
3090	0.00513421
3102	0.00465784
3114	0.00465784
3126	0.00418147
3138	0.00349338
3150	0.00328166
3162	0.00285822
3174	0.00285822
3186	0.00227599
3198	0.00243478
3210	0.00243478
3222	0.00142911
3234	0.00148204
3246	0.00095274
3258	0.0010586
3270	0.0010586
3282	0.00047637
3294	0.0010586
3306	0.00111153
3318	0.00116446
3330	0.00116446
3342	0.00116446
3354	0.00116446
3366	0.00127032
3378	0.00121739
3390	0.00127032
3402	0.00164083
3414	0.00127032
3426	0.00137618
3438	0.00089981
3450	0.00137618
3462	0.00142911
3474	0.00174669
3486	0.00386389
3498	0.00481663
3510	0.00275236
3522	0.00148204
3534	0.0010586
3546	0.0015879
3558	0.00174669
3570	0.00973912
3582	0.0128091
3594	0.00418147
3606	0.00169376
3618	0.00164083
3630	0.00121739
3642	0.00116446
3654	0.00174669
3666	0.00179962
3678	0.00169376
3690	0.00232892
3702	0.00227599
3714	0.00179962
3726	0.00206427
3738	0.00185255
3750	0.00190548
3762	0.00190548
3774	0.00195841
3786	0.00269943
3798	0.00238185
3810	0.00201134
3822	0.00206427
3834	0.00201134
3846	0.00201134
3858	0.00206427
3870	0.0021172
3882	0.00259357
3894	0.00206427
3906	0.00222306
3918	0.0026465
3930	0.00269943
3942	0.00222306
3954	0
3966	0.00015879
