Infrared Spectrum: Ethene, 1,1'-[oxybis(2,1-ethanediyloxy)]bis-
Formula: C 8 H 14 O 3
CAS: 764-99-8
Origin: Sadtler Research Labs Under US-EPA Contract
1/CM	ABSORBANCE
450	0.00807627
462	0.00744966
474	0.00403813
486	0.010165
498	0.0134372
510	0.0165007
522	0.0116967
534	0.0113485
546	0.00522172
558	0.0174754
570	0
582	0.00236718
594	0.00905099
606	0.00863325
618	0.0051521
630	0.00431663
642	0.0036204
654	0.00459512
666	0.00285454
678	0.00598758
690	0.0146208
702	0.0145512
714	0.00884212
726	0.00751928
738	0.00765853
750	0.00870287
762	0.0136461
774	0.0182412
786	0.0284062
798	0.0575782
810	0.121701
822	0.171064
834	0.151917
846	0.120587
858	0.0896744
870	0.0711547
882	0.0608505
894	0.0586922
906	0.065933
918	0.0772815
930	0.0983077
942	0.123442
954	0.125391
966	0.154215
978	0.161943
990	0.142309
1002	0.120378
1014	0.128594
1026	0.0942695
1038	0.104295
1050	0.114182
1062	0.116758
1074	0.161316
1086	0.249877
1098	0.263453
1110	0.262618
1122	0.340805
1134	0.515489
1146	0.568611
1158	0.355982
1170	0.308151
1182	0.411124
1194	0.520293
1206	0.69623
1218	0.424491
1230	0.141474
1242	0.104086
1254	0.099352
1266	0.0928771
1278	0.0978203
1290	0.109656
1302	0.111954
1314	0.19021
1326	0.236649
1338	0.103112
1350	0.093991
1362	0.108403
1374	0.0764461
1386	0.0656545
1398	0.049502
1410	0.0422612
1422	0.0295898
1434	0.0272226
1446	0.0433055
1458	0.0779778
1470	0.0600846
1482	0.039894
1494	0.030286
1506	0.0296594
1518	0.0263175
1530	0.0219312
1542	0.0215831
1554	0.0216528
1566	0.0211654
1578	0.0343938
1590	0.0733826
1602	0.176634
1614	0.416694
1626	0.366008
1638	0.413352
1650	0.325905
1662	0.170785
1674	0.0853578
1686	0.0421219
1698	0.0268745
1710	0.0191463
1722	0.0177539
1734	0.0197033
1746	0.0191463
1758	0.0185197
1770	0.0174754
1782	0.0126714
1794	0.00891174
1806	0.00661418
1818	0.00758891
1830	0.00724079
1842	0.00779778
1854	0.00591795
1866	0.00891174
1878	0.0102346
1890	0.00842438
1902	0.00779778
1914	0.0105131
1926	0.00960797
1938	0.00925986
1950	0.00905099
1962	0.00884212
1974	0.00828514
1986	0.00932948
1998	0.00863325
2010	0.00898137
2022	0.00946873
2034	0.00807627
2046	0.00856363
2058	0.00779778
2070	0.00779778
2082	0.00738004
2094	0.00668381
2106	0.00577871
2118	0.00647494
2130	0.00591795
2142	0.00591795
2154	0.00738004
2166	0.00647494
2178	0.00654456
2190	0.00744966
2202	0.00508248
2214	0.004247
2226	0.00494323
2238	0.00355077
2250	0.00396851
2262	0.00431663
2274	0.00348115
2286	0.00369002
2298	0.004247
2310	0.00487361
2322	0.00612682
2334	0.00355077
2346	6.9623e-05
2358	0.00612682
2370	0
2382	0
2394	0.00299379
2406	0.00167095
2418	0.00187982
2430	0.00146208
2442	0.000487361
2454	0.00174057
2466	0.00229756
2478	0.00111397
2490	0.00229756
2502	0.00250643
2514	0.00125321
2526	0.0033419
2538	0.00299379
2550	0.00201907
2562	0.00236718
2574	0.00194944
2586	0.00236718
2598	0.00236718
2610	0.000835476
2622	0.00139246
2634	0.00069623
2646	0.00167095
2658	0.00187982
2670	0.00355077
2682	0.00466474
2694	0.00703192
2706	0.0105131
2718	0.0137157
2730	0.0161525
2742	0.0153171
2754	0.0150386
2766	0.0157348
2778	0.0162222
2790	0.0187982
2802	0.0232541
2814	0.0289632
2826	0.0363432
2838	0.0451853
2850	0.0721294
2862	0.129777
2874	0.190071
2886	0.2049
2898	0.181438
2910	0.170089
2922	0.201628
2934	0.237345
2946	0.219104
2958	0.16981
2970	0.135695
2982	0.0937822
2994	0.0584137
3006	0.0344634
3018	0.0224882
3030	0.0245769
3042	0.0214439
3054	0.0258998
3066	0.0285454
3078	0.0213743
3090	0.0207477
3102	0.0168488
3114	0.0229756
3126	0.052635
3138	0.0250643
3150	0.00689268
3162	0.00487361
3174	0.00494323
3186	0.00292417
3198	0.00445587
3210	0.00403813
3222	0.00167095
3234	0.00452549
3246	0.00355077
3258	0.00299379
3270	0.00487361
3282	0.00264567
3294	0.00327228
3306	0.00431663
3318	0.00257605
3330	0.00167095
3342	0.00320266
3354	0.00327228
3366	0.0027153
3378	0.00341153
3390	0.00160133
3402	0.00348115
3414	0.0033419
3426	0.00187982
3438	0.00494323
3450	0.00327228
3462	0.00355077
3474	0.00494323
3486	0.00313303
3498	0.00313303
3510	0.00389889
3522	0.00382926
3534	0.00355077
3546	0.00501286
3558	0.00403813
3570	0.00320266
3582	0.0051521
3594	0.00389889
3606	0.0060572
3618	0.00522172
3630	0.00299379
3642	0.00612682
3654	0.00187982
3666	0.00487361
3678	0.0018102
3690	0.00299379
3702	0.00417738
3714	0.00473436
3726	0.00522172
3738	0.00382926
3750	0.00563946
3762	0.00229756
3774	0.0051521
3786	0.00640532
3798	0.00814589
3810	0.00550022
3822	0.00529135
3834	0.00793702
3846	0.00689268
3858	0.00431663
3870	0.00640532
3882	0.00689268
3894	0.00501286
3906	0.00556984
3918	0.00731041
3930	0.00772815
3942	0.00953835
3954	0.0087725
3966	0.00793702
