Infrared Spectrum: 2,4-Hexadiene, 2,5-dimethyl-
Formula: C 8 H 14
CAS: 764-13-6
Origin: Sadtler Research Labs Under US-EPA Contract
1/CM	ABSORBANCE
450	0.0386461
462	0.027044
474	0.0111848
486	0.00651058
498	0.00525855
510	0.00751221
522	0.00817996
534	0.025458
546	0.0434039
558	0.0289637
570	0.0178624
582	0.00717833
594	0.0116857
606	0.00542548
618	0.00400651
630	0.0048412
642	0.00475773
654	0.00434039
666	0.00525855
678	0.00575936
690	0.00976587
702	0.00584283
714	0.00191979
726	0.0048412
738	0.00717833
750	0.00876425
762	0.0126873
774	0.0145236
786	0.0179458
798	0.0314678
810	0.059263
822	0.0841368
834	0.119778
846	0.100831
858	0.0479947
870	0.0236217
882	0.0245399
894	0.0299654
906	0.0281291
918	0.0206168
930	0.0189475
942	0.0212011
954	0.0279621
966	0.0378115
978	0.052502
990	0.0572597
1002	0.0425692
1014	0.0267101
1026	0.0277952
1038	0.0507492
1050	0.0976587
1062	0.0826343
1074	0.03489
1086	0.0237887
1098	0.0251242
1110	0.032219
1122	0.0405659
1134	0.0454071
1146	0.0542549
1158	0.0679438
1170	0.0725346
1182	0.0505822
1194	0.0327198
1206	0.0303827
1218	0.0275448
1230	0.0302158
1242	0.0346396
1254	0.0343058
1266	0.0324694
1278	0.0259589
1290	0.027044
1302	0.0315513
1314	0.0378115
1326	0.0407329
1338	0.0378949
1350	0.0429031
1362	0.0799633
1374	0.168274
1386	0.212846
1398	0.139727
1410	0.0745378
1422	0.0747048
1434	0.121364
1446	0.183214
1458	0.172614
1470	0.103251
1482	0.0595969
1494	0.0383123
1506	0.0372272
1518	0.0356413
1530	0.0338049
1542	0.0366429
1554	0.0312174
1566	0.0261258
1578	0.024206
1590	0.0235383
1602	0.0314678
1614	0.0575101
1626	0.0645215
1638	0.0361421
1650	0.0253746
1662	0.014774
1674	0.0142732
1686	0.025625
1698	0.0348066
1710	0.0247068
1722	0.0118526
1734	0.0138559
1746	0.0131881
1758	0.00918159
1770	0.00826343
1782	0.00667752
1794	0.00717833
1806	0.00509161
1818	0.00517508
1830	0.00525855
1842	0.00517508
1854	0.00400651
1866	0.00417345
1878	0.00325529
1890	0.00442386
1902	0.00417345
1914	0.00475773
1926	0.00525855
1938	0.00651058
1950	0.00676099
1962	0.00784609
1974	0.0059263
1986	0.00425692
1998	0.00300488
2010	0.00183632
2022	0.0013355
2034	0.00100163
2046	0.00100163
2058	0.000584283
2070	0.00150244
2082	0.00283795
2094	0.00325529
2106	0.00333876
2118	0.0035057
2130	0.00400651
2142	0.00417345
2154	0.00434039
2166	0.00467426
2178	0.00459079
2190	0.00417345
2202	0.00358917
2214	0.00275448
2226	0.00283795
2238	0.00258754
2250	0.00150244
2262	0.00150244
2274	0.00141897
2286	0.00166938
2298	0.00200326
2310	0.0024206
2322	0.00333876
2334	0.00292141
2346	0.000500814
2358	0.00450733
2370	0.000500814
2382	0.000584283
2394	0.00417345
2406	0.00517508
2418	0.00459079
2430	0.0035057
2442	0.00358917
2454	0.00375611
2466	0.00425692
2478	0.00425692
2490	0.00333876
2502	0.0035057
2514	0.00317182
2526	0.00267101
2538	0.00200326
2550	0.00166938
2562	0.000918159
2574	0.00125203
2586	0.00217019
2598	0.00217019
2610	0.00258754
2622	0.00408998
2634	0.00500814
2646	0.00467426
2658	0.00467426
2670	0.00525855
2682	0.00509161
2694	0.00617671
2706	0.00876425
2718	0.0132716
2730	0.0334711
2742	0.0518342
2754	0.0368098
2766	0.0255415
2778	0.0198656
2790	0.0218689
2802	0.0304662
2814	0.0472435
2826	0.0676934
2838	0.091482
2850	0.162013
2862	0.378866
2874	0.47377
2886	0.444055
2898	0.451651
2910	0.536372
2922	0.821418
2934	0.721339
2946	0.404324
2958	0.325863
2970	0.46943
2982	0.478027
2994	0.302575
3006	0.22353
3018	0.21727
3030	0.224782
3042	0.185385
3054	0.123451
3066	0.0818831
3078	0.0554234
3090	0.0431535
3102	0.0360586
3114	0.0306331
3126	0.0223697
3138	0.0155252
3150	0.0116857
3162	0.0100997
3174	0.00884771
3186	0.00801302
3198	0.00659405
3210	0.00659405
3222	0.0070114
3234	0.00734527
3246	0.00817996
3258	0.00684446
3270	0.00676099
3282	0.00692793
3294	0.00659405
3306	0.00717833
3318	0.00575936
3330	0.00517508
3342	0.00559242
3354	0.0059263
3366	0.00626017
3378	0.00667752
3390	0.00851384
3402	0.00684446
3414	0.00634364
3426	0.00559242
3438	0.00525855
3450	0.0048412
3462	0.00575936
3474	0.00509161
3486	0.00500814
3498	0.00626017
3510	0.00542548
3522	0.00425692
3534	0.00492467
3546	0.0059263
3558	0.00634364
3570	0.00392304
3582	0.00542548
3594	0.00375611
3606	0.00692793
3618	0.00692793
3630	0.0070114
3642	0.0100997
3654	0.00609324
3666	0.00509161
3678	0.00292141
3690	0.00233713
3702	0.00475773
3714	0.00100163
3726	0.00759568
3738	0.00509161
3750	0
3762	0.00408998
3774	0.00517508
3786	0.00784609
3798	0.0100163
3810	0.00667752
3822	0.00584283
3834	0.0117691
3846	0.00617671
3858	0.00358917
3870	0.00742874
3882	0.0100163
3894	0.0104336
3906	0.00826343
3918	0.00884771
3930	0.014941
3942	0.0107675
3954	0.00959893
3966	0.00626017
