Infrared Spectrum: Tridecane, 1-bromo-
Formula: C 13 H 27 Br
CAS: 765-09-3
Origin: Sadtler Research Labs Under US-EPA Contract
1/CM	ABSORBANCE
450	0.00587254
462	0.0444271
474	0.0282137
486	0.0173623
498	0.0117451
510	0.0183836
522	0.0337033
534	0.0293627
546	0.031533
558	0.0135324
570	0.0107238
582	0.0186389
594	0.0126387
606	0.0131494
618	0.0269371
630	0.0157027
642	0.00842582
654	0.00995779
666	0.00931947
678	0.0105961
690	0.0111068
702	0.0128941
714	0.0271924
726	0.0301287
738	0.0237455
750	0.0153197
762	0.017873
774	0.014426
786	0.014043
798	0.0112344
810	0.0111068
822	0.0135324
834	0.00944714
846	0.0102131
858	0.00651086
870	0.0108514
882	0.015192
894	0.0108514
906	0.0121281
918	0.00919181
930	0.00983013
942	0.00714918
954	0.0116174
966	0.0105961
978	0.0120004
990	0.0120004
1002	0.0187666
1014	0.0217029
1026	0.0117451
1038	0.0137877
1050	0.0118728
1062	0.00855349
1074	0.0128941
1086	0.0108514
1098	0.0127664
1110	0.0130217
1122	0.0192773
1134	0.0252775
1146	0.0255328
1158	0.030384
1170	0.0329373
1182	0.0335756
1194	0.0414908
1206	0.0436611
1218	0.0462144
1230	0.0428951
1242	0.0407248
1254	0.0356183
1266	0.0302564
1278	0.0268094
1290	0.0284691
1302	0.031533
1314	0.0275754
1326	0.0218305
1338	0.0236178
1350	0.0360012
1362	0.0360012
1374	0.0389375
1386	0.0639597
1398	0.0220859
1410	0.0137877
1422	0.017107
1434	0.0344693
1446	0.0740451
1458	0.114259
1470	0.098046
1482	0.0340863
1494	0.0154473
1506	0.0113621
1518	0.00574488
1530	0.00421291
1542	0.00702152
1554	0.00485123
1566	0.00306394
1578	0.00268094
1590	0.00306394
1602	0.00382992
1614	0.00280861
1626	0.00306394
1638	0.00510656
1650	0.00510656
1662	0.00523422
1674	0.00242562
1686	0.00523422
1698	0.00663853
1710	0.0031916
1722	0.00331926
1734	0.0049789
1746	0.00306394
1758	0.00293627
1770	0.00382992
1782	0.00421291
1794	0.00217029
1806	0.00331926
1818	0.00306394
1830	0.00306394
1842	0.00102131
1854	0.00204262
1866	0.0031916
1878	0.00102131
1890	0.00127664
1902	0.00127664
1914	0.00217029
1926	0.00204262
1938	0.00204262
1950	0.00153197
1962	0.00268094
1974	0.0017873
1986	0.00268094
1998	0.000893648
2010	0.0017873
2022	0.00204262
2034	0.00255328
2046	0.00280861
2058	0.00280861
2070	0.0017873
2082	0.00191496
2094	0.00217029
2106	0.000765984
2118	0.00204262
2130	0.00191496
2142	0.000893648
2154	0.00127664
2166	0.00114898
2178	0.00153197
2190	0.0014043
2202	0.0017873
2214	0.00204262
2226	0.00153197
2238	0.00229795
2250	0.00191496
2262	0.00153197
2274	0.00165963
2286	0.00165963
2298	0.0014043
2310	0.000382992
2322	0.000510656
2334	0.00229795
2346	0.000255328
2358	0.00204262
2370	0.00242562
2382	0.0017873
2394	0.00217029
2406	0.00204262
2418	0.00242562
2430	0.00242562
2442	0.00229795
2454	0.00242562
2466	0.00204262
2478	0.00255328
2490	0.00306394
2502	0.00306394
2514	0.00357459
2526	0.00421291
2538	0.0045959
2550	0.00434058
2562	0.00446824
2574	0.0049789
2586	0.00574488
2598	0.00651086
2610	0.00702152
2622	0.00740451
2634	0.0081705
2646	0.00893648
2658	0.0103408
2670	0.0112344
2682	0.0128941
2694	0.0123834
2706	0.0118728
2718	0.0120004
2730	0.0132771
2742	0.015192
2754	0.015192
2766	0.014809
2778	0.016724
2790	0.0213199
2802	0.0273201
2814	0.0357459
2826	0.0502996
2838	0.0833646
2850	0.168644
2862	0.453846
2874	0.378907
2886	0.267839
2898	0.25469
2910	0.374822
2922	0.701641
2934	1.27664
2946	0.807475
2958	0.417334
2970	0.422568
2982	0.23337
2994	0.163027
3006	0.0685556
3018	0.0380439
3030	0.0275754
3042	0.0209369
3054	0.0169793
3066	0.014426
3078	0.0125111
3090	0.0113621
3102	0.0095748
3114	0.00944714
3126	0.00868115
3138	0.00842582
3150	0.00804283
3162	0.00740451
3174	0.00676619
3186	0.00740451
3198	0.00702152
3210	0.00676619
3222	0.00612787
3234	0.00523422
3246	0.0045959
3258	0.00446824
3270	0.00408525
3282	0.00344693
3294	0.0031916
3306	0.00268094
3318	0.00306394
3330	0.00204262
3342	0.00280861
3354	0.00280861
3366	0.00242562
3378	0.00242562
3390	0.00204262
3402	0.00280861
3414	0.00268094
3426	0.00357459
3438	0.00191496
3450	0.00127664
3462	0.00229795
3474	0.00127664
3486	0.0017873
3498	0.00204262
3510	0.0017873
3522	0.00191496
3534	0.00127664
3546	0.00153197
3558	0.0014043
3570	0.00102131
3582	0.00102131
3594	0.00217029
3606	0.00102131
3618	0.00344693
3630	0.00357459
3642	0.00204262
3654	0.00472357
3666	0.00063832
3678	0.00548955
3690	0.00242562
3702	0.00127664
3714	0.00127664
3726	0.0017873
3738	0.00268094
3750	0.00280861
3762	0.00217029
3774	0.00268094
3786	0.000765984
3798	0.000382992
3810	0.000255328
3822	0.00561722
3834	0.00242562
3846	0.0014043
3858	0.00600021
3870	0.00280861
3882	0.00165963
3894	0.00306394
3906	0.00510656
3918	0.00165963
3930	0.00382992
3942	0.000255328
3954	0.00523422
3966	0.00536189
