Infrared Spectrum: 2,5-Dibromobenzotrifluoride
Formula: C 7 H 3 Br 2 F 3
CAS: 7657-09-2
Origin: Sadtler Research Labs Under US-EPA Contract
1/CM	ABSORBANCE
450	0.0165482
462	0.019797
474	0.0568529
486	0.0164467
498	0.00680204
510	0.0177665
522	0.0241625
534	0.00598986
546	0.00416244
558	0.00142132
570	0.00385787
582	0.00365483
594	0.0135026
606	0.00568529
618	0.0026396
630	0.00121828
642	0.0052792
654	0.0467006
666	0.00497463
678	0.00335026
690	0.00467006
702	0.011066
714	0.0963453
726	0.0183757
738	0.00304569
750	0.00294417
762	0.00203046
774	0.00223351
786	0.00446701
798	0.00923859
810	0.079594
822	0.103147
834	0.00802032
846	0.00385787
858	0.00345178
870	0.00213198
882	0.0167513
894	0.0692387
906	0.00842641
918	0.000609138
930	0.00233503
942	0.00284264
954	0.0039594
966	0.00345178
978	0.00294417
990	0.00406092
1002	0.00680204
1014	0.0940103
1026	0.343554
1038	0.0398985
1050	0.0189848
1062	0.0246701
1074	0.03533
1086	0.13066
1098	0.247107
1110	0.0565483
1122	0.0635534
1134	0.211675
1146	0.212285
1158	0.476854
1170	0.716854
1182	0.745077
1194	0.238681
1206	0.0711676
1218	0.0458884
1230	0.0750255
1242	0.123655
1254	0.088325
1266	0.136345
1278	0.0845687
1290	0.268934
1302	0.994722
1314	0.364468
1326	0.0337056
1338	0.0278173
1350	0.0217259
1362	0.013401
1374	0.0367513
1386	0.235127
1398	0.127208
1410	0.0398985
1422	0.0212183
1434	0.0192894
1446	0.0343148
1458	0.109848
1470	0.151574
1482	0.0251777
1494	0.0114721
1506	0.0172589
1518	0.0130965
1530	0.00649747
1542	0.00791879
1554	0.00720813
1566	0.00812184
1578	0.00832489
1590	0.0100508
1602	0.00121828
1614	0.00162437
1626	0.00670052
1638	0.010863
1650	0.00416244
1662	0.000203046
1674	0.00253807
1686	0.00497463
1698	0.00578681
1710	0.00355331
1722	0.00538072
1734	0.0088325
1746	0.0075127
1758	0.00954316
1770	0.0147208
1782	0.0129949
1794	0.00700509
1806	0.00345178
1818	0.00324874
1830	0.00416244
1842	0.00477158
1854	0.00304569
1866	0.00294417
1878	0.00243655
1890	0.00497463
1902	0.00802032
1914	0.0052792
1926	0.00223351
1938	0.00203046
1950	0.00213198
1962	0.00233503
1974	0.00253807
1986	0.00253807
1998	0.00192894
2010	0.00142132
2022	0.00172589
2034	0.00111675
2046	0.00162437
2058	0.00203046
2070	0.00182741
2082	0.00142132
2094	0.00162437
2106	0.00294417
2118	0.00324874
2130	0.00172589
2142	0.0013198
2154	0.00111675
2166	0.00142132
2178	0.00172589
2190	0.00243655
2202	0.00243655
2214	0.00192894
2226	0.00203046
2238	0.00182741
2250	0.00253807
2262	0.00355331
2274	0.00426397
2286	0.00436549
2298	0.00548224
2310	0.00649747
2322	0.00568529
2334	0.00416244
2346	0.00609138
2358	0.00517767
2370	0.00406092
2382	0.00436549
2394	0.00223351
2406	0.00182741
2418	0.00142132
2430	0.00111675
2442	0.0013198
2454	0.0013198
2466	0.0013198
2478	0.0013198
2490	0.00101523
2502	0.00121828
2514	0.00121828
2526	0.0013198
2538	0.00121828
2550	0.00162437
2562	0.0013198
2574	0.0013198
2586	0.000913707
2598	0.000913707
2610	0.000913707
2622	0.000507615
2634	0.000609138
2646	0.000609138
2658	0.000812184
2670	0.000406092
2682	0.00101523
2694	0.00142132
2706	0.000507615
2718	0.000710661
2730	0.000304569
2742	0.000203046
2754	0.000304569
2766	0.000101523
2778	0.000304569
2790	0.00101523
2802	0.00203046
2814	0.00142132
2826	0.00172589
2838	0.00121828
2850	0.0013198
2862	0.00172589
2874	0.00213198
2886	0.00203046
2898	0.00142132
2910	0.0013198
2922	0.00162437
2934	0.00192894
2946	0.00182741
2958	0.00172589
2970	0.00223351
2982	0.00111675
2994	0.000710661
3006	0.000812184
3018	0.00121828
3030	0.00111675
3042	0.000609138
3054	0.000406092
3066	0.00101523
3078	0.00416244
3090	0.0052792
3102	0.00335026
3114	0.00203046
3126	0.00111675
3138	0.00101523
3150	0.00101523
3162	0.000812184
3174	0.000101523
3186	0.000304569
3198	0.000406092
3210	0.000304569
3222	0.000304569
3234	0.000101523
3246	0.000304569
3258	0.000203046
3270	0
3282	0.000609138
3294	0.000507615
3306	0.000101523
3318	0.000507615
3330	0.000507615
3342	0.000710661
3354	0.000812184
3366	0.000710661
3378	0.000609138
3390	0.000507615
3402	0.000406092
3414	0.000507615
3426	0.000609138
3438	0.000913707
3450	0.000406092
3462	0.000304569
3474	0.000406092
3486	0.000304569
3498	0.000507615
3510	0.000609138
3522	0.00111675
3534	0.000406092
3546	0.00111675
3558	0.000812184
3570	0.00111675
3582	0.00182741
3594	0.00223351
3606	0.00101523
3618	0.000406092
3630	0.00142132
3642	0.000913707
3654	0.00101523
3666	0.000609138
3678	0.00121828
3690	0.000406092
3702	0.00101523
3714	0.0013198
3726	0.0013198
3738	0.00182741
3750	0.000101523
3762	0.000913707
3774	0.000609138
3786	0.00111675
3798	0.00111675
3810	0.00111675
3822	0.00203046
3834	0.00192894
3846	0.000812184
3858	0.00213198
3870	0.000304569
3882	0.0013198
3894	0.00162437
3906	0.00172589
3918	0.00111675
3930	0.00121828
3942	0.000812184
3954	0.00111675
3966	0.00101523
