Infrared Spectrum: Piperidine, 1-ethyl-
Formula: C 7 H 15 N
CAS: 766-09-6
Origin: Sadtler Research Labs Under US-EPA Contract
1/CM	ABSORBANCE
450	0.0151453
462	0.0237625
474	0.0143619
486	0.0186705
498	0.0127952
510	0.0159287
522	0.0139702
534	0.0191928
546	0.0204984
558	0.0188011
570	0.0300295
582	0.0198456
594	0.0189316
606	0.0174954
618	0.0178871
630	0.0165815
642	0.0165815
654	0.0164509
666	0.0146231
678	0.0156676
690	0.0148842
702	0.0157981
714	0.0161898
726	0.0171038
738	0.0298989
750	0.0539225
762	0.0669788
774	0.0400828
786	0.0232402
798	0.0211512
810	0.0215429
822	0.0203678
834	0.0173649
846	0.0263737
858	0.0374716
870	0.0296378
882	0.0204984
894	0.0199761
906	0.0223263
918	0.0267654
930	0.0432164
942	0.0464804
954	0.0236319
966	0.0193233
978	0.0198456
990	0.0236319
1002	0.0334241
1014	0.0477861
1026	0.0565338
1038	0.0802962
1050	0.0835603
1062	0.05797
1074	0.0601895
1086	0.0921775
1098	0.106931
1110	0.0921775
1122	0.0929609
1134	0.145317
1146	0.175607
1158	0.194539
1170	0.133827
1182	0.0596673
1194	0.0338158
1206	0.0283322
1218	0.0406051
1230	0.0651509
1242	0.0686761
1254	0.0741598
1266	0.074682
1278	0.0583617
1290	0.0618869
1302	0.102361
1314	0.115679
1326	0.0814713
1338	0.0983139
1350	0.132391
1362	0.0977917
1374	0.105234
1386	0.122207
1398	0.0733764
1410	0.0441303
1422	0.0344686
1434	0.0553587
1446	0.111892
1458	0.124818
1470	0.0876078
1482	0.0515724
1494	0.025982
1506	0.0147536
1518	0.0127952
1530	0.0114895
1542	0.0110979
1554	0.0101839
1566	0.0103145
1578	0.0105756
1590	0.0108367
1602	0.0105756
1614	0.0101839
1626	0.00848659
1638	0.00940054
1650	0.00848659
1662	0.00835603
1674	0.00979222
1686	0.0117507
1698	0.0109673
1710	0.00940054
1722	0.00770322
1734	0.00652815
1746	0.00718096
1758	0.00718096
1770	0.00770322
1782	0.00744209
1794	0.00822547
1806	0.00809491
1818	0.00731153
1830	0.00731153
1842	0.00757265
1854	0.00770322
1866	0.00744209
1878	0.00691984
1890	0.00796434
1902	0.00796434
1914	0.00809491
1926	0.0070504
1938	0.00652815
1950	0.0060059
1962	0.00587533
1974	0.00535308
1986	0.00535308
1998	0.00574477
2010	0.00535308
2022	0.00574477
2034	0.00535308
2046	0.00548365
2058	0.00626702
2070	0.00626702
2082	0.00626702
2094	0.00522252
2106	0.0045697
2118	0.00443914
2130	0.00443914
2142	0.0045697
2154	0.00443914
2166	0.00470027
2178	0.00443914
2190	0.00522252
2202	0.00535308
2214	0.00509196
2226	0.00626702
2238	0.00665871
2250	0.00496139
2262	0.0045697
2274	0.00509196
2286	0.00509196
2298	0.00496139
2310	0.0035252
2322	0.00274182
2334	0.00274182
2346	0.00287239
2358	0.00274182
2370	0.00443914
2382	0.00496139
2394	0.00744209
2406	0.00809491
2418	0.00796434
2430	0.00678928
2442	0.00626702
2454	0.0060059
2466	0.00652815
2478	0.00757265
2490	0.00900885
2502	0.00926997
2514	0.00926997
2526	0.0095311
2538	0.00979222
2550	0.010445
2562	0.0112284
2574	0.0139702
2586	0.0191928
2598	0.0241542
2610	0.0267654
2622	0.0283322
2634	0.0327713
2646	0.0404745
2658	0.055881
2670	0.0789906
2682	0.0924386
2694	0.101839
2706	0.103667
2718	0.116071
2730	0.15067
2742	0.203025
2754	0.2875
2766	0.335155
2778	0.35239
2790	0.332675
2802	0.32001
2814	0.26426
2826	0.165162
2838	0.106931
2850	0.140355
2862	0.247809
2874	0.251595
2886	0.196367
2898	0.198195
2910	0.247809
2922	0.480341
2934	1.03993
2946	1.29035
2958	0.693942
2970	0.383986
2982	0.31309
2994	0.150539
3006	0.0489611
3018	0.0253292
3030	0.0220651
3042	0.0178871
3054	0.0169732
3066	0.0159287
3078	0.0131869
3090	0.0118812
3102	0.0120118
3114	0.0120118
3126	0.00966166
3138	0.00848659
3150	0.00835603
3162	0.00848659
3174	0.00992279
3186	0.0108367
3198	0.00926997
3210	0.00665871
3222	0.00626702
3234	0.0070504
3246	0.00496139
3258	0.00509196
3270	0.0045697
3282	0.00430858
3294	0.00509196
3306	0.00509196
3318	0.0060059
3330	0.00483083
3342	0.00509196
3354	0.00574477
3366	0.0060059
3378	0.00483083
3390	0.00535308
3402	0.00613646
3414	0.00639759
3426	0.00443914
3438	0.00548365
3450	0.00678928
3462	0.00548365
3474	0.00404745
3486	0.0070504
3498	0.00809491
3510	0.00691984
3522	0.00522252
3534	0.00626702
3546	0.00613646
3558	0.00470027
3570	0.00652815
3582	0.00744209
3594	0.00678928
3606	0.00718096
3618	0.00665871
3630	0.00404745
3642	0.00861716
3654	0.00913941
3666	0.00913941
3678	0.00822547
3690	0.00809491
3702	0.00861716
3714	0.0109673
3726	0.00744209
3738	0.00926997
3750	0.010445
3762	0.0120118
3774	0.00900885
3786	0.0124035
3798	0.00861716
3810	0.00900885
3822	0.0118812
3834	0.00626702
3846	0.00496139
3858	0.0117507
3870	0.010445
3882	0.00992279
3894	0.0109673
3906	0.0138397
3918	0.0114895
3930	0.0137091
3942	0.0112284
3954	0.0147536
3966	0.010445
