Infrared Spectrum: Benzonitrile, 3-chloro-
Formula: C 7 H 4 Cl N
CAS: 766-84-7
Origin: Sadtler Research Labs Under US-EPA Contract
1/CM	ABSORBANCE
450	0.0604016
462	0.0660406
474	0.00694022
486	0.00672334
498	0.010085
510	0.00954281
522	0.00802463
534	0.00520517
546	0.0146395
558	0.0200616
570	0.0151817
582	0.02852
594	0.02017
606	0.00932593
618	0.00910904
630	0.0151817
642	0.0237486
654	0.0771016
666	0.277934
678	0.743038
690	0.412184
702	0.112996
714	0.0458705
726	0.0262427
738	0.0266765
750	0.0692938
762	0.0819814
774	0.370977
786	1.08441
798	0.51889
810	0.165915
822	0.204411
834	0.38464
846	0.763425
858	0.467164
870	0.132081
882	0.242474
894	0.214496
906	0.0975969
918	0.0332914
930	0.0103019
942	0.00726555
954	0.0140973
966	0.0194109
978	0.0148564
990	0.0140973
1002	0.0172421
1014	0.0187603
1026	0.0277609
1038	0.0333998
1050	0.052377
1062	0.0673419
1074	0.198013
1086	0.444174
1098	0.450681
1110	0.179253
1122	0.0400147
1134	0.0255921
1146	0.0162662
1158	0.0261343
1170	0.0345927
1182	0.0881625
1194	0.494816
1206	0.327275
1218	0.0261343
1230	0.0390388
1242	0.0381712
1254	0.0703782
1266	0.0738483
1278	0.0276525
1290	0.0198447
1302	0.0472803
1314	0.0264596
1326	0.0116032
1338	0.012037
1350	0.0155071
1362	0.0151817
1374	0.00683178
1386	0.0204953
1398	0.117875
1410	0.285417
1422	0.232606
1434	0.0657152
1446	0.0510757
1458	0.304285
1470	0.581678
1482	0.449705
1494	0.0992235
1506	0.0443524
1518	0.0284115
1530	0.0367615
1542	0.121779
1554	0.298104
1566	0.59751
1578	0.665936
1590	0.396677
1602	0.289429
1614	0.0806801
1626	0.0186519
1638	0.0119285
1650	0.00943437
1662	0.00791619
1674	0.0113863
1686	0.0466296
1698	0.0623536
1710	0.0172421
1722	0.0111694
1734	0.00975969
1746	0.0163746
1758	0.0415329
1770	0.0584497
1782	0.0414245
1794	0.023857
1806	0.0299297
1818	0.0307972
1830	0.0153986
1842	0.00715711
1854	0.0116032
1866	0.0245077
1878	0.053353
1890	0.0328576
1902	0.00639802
1914	0.00336167
1926	0.0116032
1938	0.0329661
1950	0.0366531
1962	0.0163746
1974	0.00444608
1986	0.00260258
1998	0.00173506
2010	0.00216882
2022	0.0018435
2034	0.00119285
2046	0.000650646
2058	0
2070	0.000325323
2082	0.000542205
2094	0.00130129
2106	0.00249414
2118	0.000650646
2130	0.000108441
2142	0.000433764
2154	0.000975969
2166	0.00173506
2178	0.00303635
2190	0.00206038
2202	0.00140973
2214	0.00769931
2226	0.0508588
2238	0.117984
2250	0.0559556
2262	0.00683178
2274	0.00292791
2286	0.00433764
2298	0.00498829
2310	0.00444608
2322	0.00628958
2334	0.0117116
2346	0.0136636
2358	0.0122538
2370	0.0142058
2382	0.0125792
2394	0.0125792
2406	0.00769931
2418	0.0042292
2430	0.00379544
2442	0.00314479
2454	0.00206038
2466	0.00303635
2478	0.00401232
2490	0.00531361
2502	0.00694022
2514	0.00759087
2526	0.00997657
2538	0.00596425
2550	0.0042292
2562	0.00628958
2574	0.00694022
2586	0.00596425
2598	0.00596425
2610	0.00563893
2622	0.00455452
2634	0.00357855
2646	0.00314479
2658	0.00379544
2670	0.00433764
2682	0.00639802
2694	0.00975969
2706	0.00737399
2718	0.00368699
2730	0.00520517
2742	0.00585581
2754	0.0066149
2766	0.00954281
2778	0.0129045
2790	0.0122538
2802	0.00694022
2814	0.00487984
2826	0.0047714
2838	0.00412076
2850	0.00466296
2862	0.00444608
2874	0.00466296
2886	0.00412076
2898	0.00347011
2910	0.00260258
2922	0.00357855
2934	0.00628958
2946	0.00726555
2958	0.00520517
2970	0.00433764
2982	0.00412076
2994	0.00455452
3006	0.00563893
3018	0.0109525
3030	0.0160493
3042	0.0166999
3054	0.0178928
3066	0.0468465
3078	0.116466
3090	0.113212
3102	0.0434848
3114	0.0186519
3126	0.00531361
3138	0.00455452
3150	0.00433764
3162	0.00455452
3174	0.0047714
3186	0.00433764
3198	0.00303635
3210	0.00206038
3222	0.00162662
3234	0.00249414
3246	0.00162662
3258	0.00206038
3270	0.00281947
3282	0.00195194
3294	0.00260258
3306	0.00173506
3318	0.00173506
3330	0.00260258
3342	0.00195194
3354	0.00281947
3366	0.00173506
3378	0.00227726
3390	0.00216882
3402	0.00292791
3414	0.00639802
3426	0.0135551
3438	0.0129045
3450	0.00455452
3462	0.00303635
3474	0.00347011
3486	0.00227726
3498	0.00357855
3510	0.0042292
3522	0.00260258
3534	0.00412076
3546	0.0042292
3558	0.00379544
3570	0.00401232
3582	0.00379544
3594	0.00487984
3606	0.0018435
3618	0.00314479
3630	0.00433764
3642	0.00303635
3654	0.00401232
3666	0.00281947
3678	0.0047714
3690	0.00444608
3702	0.00509673
3714	0.00672334
3726	0.00542205
3738	0.00531361
3750	0.00498829
3762	0.00563893
3774	0.00856684
3786	0.00618114
3798	0.00455452
3810	0.00260258
3822	0.0047714
3834	0.00357855
3846	0.00509673
3858	0.00433764
3870	0.00249414
3882	0.00195194
3894	0.00379544
3906	0.00650646
3918	0.00628958
3930	0.00650646
3942	0.00563893
3954	0.00325323
3966	0.00140973
