Infrared Spectrum: Benzyl methyl sulfide
Formula: C 8 H 10 S
CAS: 766-92-7
Origin: Sadtler Research Labs Under US-EPA Contract
1/CM	ABSORBANCE
450	0.0252363
462	0.0457637
474	0.0454894
486	0.0118867
498	0.0055776
510	0.00105151
522	0.00525757
534	0.00283452
546	0.00886929
558	0.0363915
570	0.0361629
582	0.010058
594	0.00352029
606	0.00205731
618	0.00374888
630	0.00448036
642	0.00923504
654	0.0181043
666	0.0421063
678	0.130525
690	0.334336
702	0.429612
714	0.254512
726	0.222967
738	0.109312
750	0.0578333
762	0.0796408
774	0.0691713
786	0.0289395
798	0.0166414
810	0.0200702
822	0.0163213
834	0.00850355
846	0.00868642
858	0.00818352
870	0.00630908
882	0.00681198
894	0.00992081
906	0.0211674
918	0.0184244
930	0.00896073
942	0.011018
954	0.0300824
966	0.045398
978	0.0730116
990	0.0463581
1002	0.0147669
1014	0.0134411
1026	0.0527129
1038	0.0363915
1050	0.0136697
1062	0.0425635
1074	0.0547702
1086	0.0263793
1098	0.0128468
1110	0.00896073
1122	0.00475467
1134	0.00416034
1146	0.00694914
1158	0.0107437
1170	0.0127096
1182	0.015727
1194	0.031454
1206	0.0277965
1218	0.0199788
1230	0.0661539
1242	0.111643
1254	0.0549073
1266	0.01815
1278	0.0159556
1290	0.0168242
1302	0.0152241
1314	0.0266079
1326	0.0351114
1338	0.0178757
1350	0.00973793
1362	0.00992081
1374	0.0132125
1386	0.0135782
1398	0.0140354
1410	0.0245506
1422	0.0668854
1434	0.12897
1446	0.170665
1458	0.121564
1470	0.0461752
1482	0.0325512
1494	0.148401
1506	0.0972879
1518	0.0142183
1530	0.0139897
1542	0.015727
1554	0.0130296
1566	0.0148126
1578	0.0158641
1590	0.0329627
1602	0.0732402
1614	0.0463123
1626	0.012481
1638	0.0063548
1650	0.00525757
1662	0.00466324
1674	0.0078635
1686	0.0073606
1698	0.00603478
1710	0.0081378
1722	0.0158184
1734	0.0208017
1746	0.0170528
1758	0.0127096
1770	0.00932647
1782	0.00996652
1794	0.0214875
1806	0.0199788
1818	0.010698
1830	0.00603478
1842	0.00393175
1854	0.00489183
1866	0.0113381
1878	0.0148583
1890	0.0133497
1902	0.0050747
1914	0.00379459
1926	0.00822924
1938	0.01815
1950	0.0219446
1962	0.0152698
1974	0.00274308
1986	0.00233162
1998	0.00251449
2010	0.00297167
2022	0.00242305
2034	0.00169157
2046	0.00137154
2058	0.000548616
2070	0.000320026
2082	0.000320026
2094	0.000320026
2106	4.5718e-05
2118	9.1436e-05
2130	0.00022859
2142	0.00068577
2154	0.000502898
2166	0.00068577
2178	0.000731488
2190	0.000502898
2202	0.000548616
2214	0.000777206
2226	0.00091436
2238	0.00146298
2250	0.00224018
2262	0.00288023
2274	0.0040689
2286	0.00512042
2298	0.00694914
2310	0.0096465
2322	0.00777206
2334	0.00251449
2346	0.00260593
2358	0.00187444
2370	0
2382	0.00301739
2394	0.00118867
2406	0.00141726
2418	0.00164585
2430	0.00141726
2442	0.00091436
2454	0.000137154
2466	0.00045718
2478	0.000411462
2490	0.000365744
2502	0.000365744
2514	0.000868642
2526	0.000960078
2538	0.000822924
2550	0.000502898
2562	0.00091436
2574	0.000960078
2586	0.00137154
2598	0.00233162
2610	0.00310882
2622	0.00320026
2634	0.00333741
2646	0.00274308
2658	0.00370316
2670	0.00379459
2682	0.00269736
2694	0.00233162
2706	0.00201159
2718	0.00224018
2730	0.00306311
2742	0.00320026
2754	0.00352029
2766	0.00301739
2778	0.00484611
2790	0.00722344
2802	0.010378
2814	0.0159099
2826	0.0281166
2838	0.0526671
2850	0.0758919
2862	0.0566903
2874	0.0495126
2886	0.0444836
2898	0.0561417
2910	0.135188
2922	0.346771
2934	0.307911
2946	0.143829
2958	0.0941334
2970	0.080738
2982	0.0976536
2994	0.104694
3006	0.0747946
3018	0.0852641
3030	0.208611
3042	0.254466
3054	0.121244
3066	0.201113
3078	0.264844
3090	0.150092
3102	0.100077
3114	0.0533529
3126	0.0210303
3138	0.00946363
3150	0.0078635
3162	0.00768062
3174	0.00649196
3186	0.00338313
3198	0.00205731
3210	0.00224018
3222	0.001783
3234	0.00173728
3246	0.00169157
3258	0.00205731
3270	0.00155441
3282	0.00196587
3294	0.00164585
3306	0.00118867
3318	0.00091436
3330	0.000868642
3342	0.000411462
3354	0.000640052
3366	0.000960078
3378	0.000868642
3390	0.00118867
3402	0.000731488
3414	0.000548616
3426	0.00114295
3438	0.000777206
3450	0.00068577
3462	0.00045718
3474	0.000777206
3486	0.00109723
3498	0.00109723
3510	0.00155441
3522	0.00196587
3534	0.000868642
3546	0.00137154
3558	0.00137154
3570	0.00214875
3582	0.0022859
3594	0.0010058
3606	0.00150869
3618	0.00219446
3630	0.00192016
3642	0.00420606
3654	0.00434321
3666	0.00288023
3678	0.00219446
3690	0.00192016
3702	0.00205731
3714	0.00187444
3726	0.00169157
3738	0.00123439
3750	0.0010058
3762	0.00160013
3774	0.00173728
3786	0.00114295
3798	0.00210303
3810	0.00196587
3822	0.00160013
3834	0.00169157
3846	0.00155441
3858	0.00192016
3870	0.00324598
3882	0.00338313
3894	0.00237734
3906	0.00173728
3918	0.00292595
3930	0.00237734
3942	0.00146298
3954	0.0012801
3966	0.00196587
