Infrared Spectrum: Benzene, 1-chloro-2-methoxy-
Formula: C 7 H 7 Cl O
CAS: 766-51-8
Origin: Sadtler Research Labs Under US-EPA Contract
1/CM	ABSORBANCE
450	0.00538256
462	0.00366724
474	0.00141958
486	0.00437703
498	0.00834001
510	0.00561915
522	0.00520511
534	0.00934554
546	0.0125396
558	0.0244877
570	0.0258481
582	0.0234822
594	0.00970044
606	0.00508681
618	0.00526426
630	0.00337149
642	0.00283915
654	0.00650639
666	0.0230681
678	0.0768346
690	0.0900839
702	0.035312
714	0.040872
726	0.0863575
738	0.213291
750	0.251975
762	0.105108
774	0.0233047
786	0.0251975
798	0.0412269
810	0.027386
822	0.0102919
834	0.00490937
846	0.00662469
858	0.00556001
870	0.00431788
882	0.00431788
894	0.00378554
906	0.00348979
918	0.00810341
930	0.0102328
942	0.00532341
954	0.00443617
966	0.00745277
978	0.0130128
990	0.0248426
1002	0.0481473
1014	0.106054
1026	0.18005
1038	0.243635
1050	0.16822
1062	0.248367
1074	0.303139
1086	0.106764
1098	0.0478515
1110	0.0260256
1122	0.0531158
1134	0.070269
1146	0.0263213
1158	0.0228907
1170	0.021826
1182	0.0269719
1194	0.0243694
1206	0.0189868
1218	0.0298111
1230	0.0859435
1242	0.290303
1254	0.426464
1266	0.401208
1278	0.37323
1290	0.233165
1302	0.182652
1314	0.0691452
1326	0.0155562
1338	0.0116524
1350	0.0085766
1362	0.0110017
1374	0.01668
1386	0.0192826
1398	0.01668
1410	0.0165026
1422	0.0402805
1434	0.128886
1446	0.161713
1458	0.171355
1470	0.228315
1482	0.530034
1494	0.498035
1506	0.136279
1518	0.0454264
1530	0.0163251
1542	0.0180404
1554	0.01946
1566	0.0466686
1578	0.116169
1590	0.191998
1602	0.123326
1614	0.0282141
1626	0.0103511
1638	0.00656554
1650	0.00810341
1662	0.00780767
1674	0.0103511
1686	0.00981873
1698	0.0086949
1710	0.00390383
1722	0.00366724
1734	0.00839916
1746	0.00780767
1758	0.0101145
1770	0.0101736
1782	0.00786682
1794	0.00845831
1806	0.0056783
1818	0.00431788
1830	0.00520511
1842	0.0056783
1854	0.00514596
1866	0.0060332
1878	0.00940469
1890	0.0118889
1902	0.00697958
1914	0.00621064
1926	0.00946384
1938	0.00644724
1950	0.00260256
1962	0.00147872
1974	0.000946384
1986	0.000946384
1998	0.00112383
2010	0.00141958
2022	0.00319405
2034	0.00508681
2046	0.00786682
2058	0.00922724
2070	0.0110017
2082	0.0090498
2094	0.00621064
2106	0.00514596
2118	0.00278
2130	0.00177447
2142	0.00183362
2154	0.00183362
2166	0.00242511
2178	0.00183362
2190	0.00141958
2202	0.000414043
2214	0.000532341
2226	0.000946384
2238	0.000532341
2250	0.00106468
2262	0.00201107
2274	0.00384469
2286	0.00544171
2298	0.00419958
2310	0.00141958
2322	0.00236596
2334	0.00171532
2346	0.000828086
2358	0.00189277
2370	0.00212936
2382	0.00248426
2394	0.0028983
2406	0.00147872
2418	0.00141958
2430	0.000532341
2442	0.000650639
2454	0.00059149
2466	0.000709788
2478	0.00118298
2490	0.00177447
2502	0.00230681
2514	0.00325319
2526	0.00396298
2538	0.0057966
2550	0.00786682
2562	0.00692043
2574	0.00544171
2586	0.00396298
2598	0.00260256
2610	0.00207021
2622	0.00212936
2634	0.00212936
2646	0.00177447
2658	0.00177447
2670	0.000887235
2682	0.000414043
2694	0
2706	0
2718	0.000532341
2730	0.00159702
2742	0.00153787
2754	0.00130128
2766	0.000828086
2778	0.00118298
2790	0.00177447
2802	0.00390383
2814	0.00780767
2826	0.0182179
2838	0.057552
2850	0.0805609
2862	0.0389792
2874	0.0250792
2886	0.0314673
2898	0.0387426
2910	0.0509273
2922	0.0633486
2934	0.0752375
2946	0.120309
2958	0.126224
2970	0.0852929
2982	0.0463728
2994	0.0389792
3006	0.0786682
3018	0.0928048
3030	0.0464911
3042	0.0298702
3054	0.0316447
3066	0.0567239
3078	0.0954073
3090	0.0722801
3102	0.0284507
3114	0.0125987
3126	0.00384469
3138	0.00343064
3150	0.00408128
3162	0.00354894
3174	0.00218851
3186	0.00171532
3198	0.00124213
3210	0.00124213
3222	0.00136043
3234	0.00130128
3246	0.00159702
3258	0.00201107
3270	0.00201107
3282	0.00100553
3294	0.000828086
3306	0.000650639
3318	0.00230681
3330	0.00136043
3342	0.00124213
3354	0.00147872
3366	0.00195192
3378	0.00248426
3390	0.00254341
3402	0.00159702
3414	0.00177447
3426	0.00124213
3438	0.00130128
3450	0.000828086
3462	0.00118298
3474	0.00124213
3486	0.00153787
3498	0.00165617
3510	0.00165617
3522	0.00254341
3534	0.00189277
3546	0.00236596
3558	0.00183362
3570	0.00242511
3582	0.00159702
3594	0.00212936
3606	0.00106468
3618	0.00283915
3630	0.00272085
3642	0.00177447
3654	0.00136043
3666	0.000828086
3678	0.000473192
3690	0.00112383
3702	0.000709788
3714	0.000354894
3726	0.00059149
3738	0.000118298
3750	0.000768937
3762	0.000295745
3774	0.000650639
3786	0
3798	0.000177447
3810	5.9149e-05
3822	0.000295745
3834	0.000236596
3846	0.000887235
3858	0.000828086
3870	0.00159702
3882	0.00153787
3894	0.00130128
3906	0.00059149
3918	0.00141958
3930	0.00130128
3942	0.00112383
3954	0.00224766
3966	0.00224766
