Infrared Spectrum: 1-(3-Aminopropyl)-2-pyrrolidone
Formula: C 7 H 14 N 2 O
CAS: 7663-77-6
Origin: Sadtler Research Labs Under US-EPA Contract
1/CM	ABSORBANCE
450	0.0167509
462	0.0101676
474	0.0091435
486	0.00285277
498	0.00226759
510	0.00431573
522	0.00497406
534	0
546	0.00329166
558	0.00665647
570	0.0071685
582	0.0053398
594	0.00270648
606	0.00416944
618	0.00738795
630	0.0092898
642	0.00958239
654	0.0122889
666	0.0107528
678	0.0091435
690	0.00994813
702	0.0130203
714	0.0190916
726	0.0277231
738	0.0354768
750	0.0465953
762	0.0538369
774	0.0597619
786	0.0544221
798	0.0414018
810	0.0345259
822	0.0315999
834	0.031161
846	0.0300638
858	0.0230416
870	0.014849
882	0.00972868
894	0.00943609
906	0.0071685
918	0.00936294
930	0.0120694
942	0.00680276
954	0.00680276
966	0.00753424
978	0.00402314
990	0.00490092
1002	0.00863146
1014	0.0119963
1026	0.00965554
1038	0.0105333
1050	0.0142639
1062	0.0185064
1074	0.0238462
1086	0.0223833
1098	0.0170435
1110	0.0125815
1122	0.0125083
1134	0.0157268
1146	0.0215055
1158	0.0251629
1170	0.0264064
1182	0.0269916
1194	0.0312342
1206	0.0381101
1218	0.0473999
1230	0.0500332
1242	0.0574212
1254	0.100505
1266	0.164729
1278	0.188795
1290	0.147905
1302	0.0687591
1314	0.0517888
1326	0.0560314
1338	0.0550804
1350	0.0497406
1362	0.0472536
1374	0.0432305
1386	0.0394999
1398	0.0529592
1410	0.119231
1422	0.191282
1434	0.129179
1446	0.0666378
1458	0.0646628
1470	0.0621027
1482	0.0259675
1494	0.0334286
1506	0.0250166
1518	0.00629073
1530	0.0038037
1542	0.00387684
1554	0.00321851
1566	0.00409629
1578	0.00570554
1590	0.00768054
1602	0.0108991
1614	0.018799
1626	0.0263333
1638	0.0224564
1650	0.0208472
1662	0.0400851
1674	0.071685
1686	0.0798045
1698	0.106138
1710	0.327922
1722	0.708219
1734	0.570116
1746	0.14732
1758	0.0517888
1770	0.0312342
1782	0.0136787
1794	0.00672962
1806	0.00453518
1818	0.00299907
1830	0.00212129
1842	0.00219444
1854	0.00146296
1866	0.0016824
1878	0.0018287
1890	0.00131666
1902	0.00102407
1914	0.000658332
1926	0.000512036
1938	0.00073148
1950	0.00073148
1962	0.000512036
1974	0.00073148
1986	0.000877776
1998	0.00153611
2010	0.00160926
2022	0.0016824
2034	0.00153611
2046	0.00138981
2058	0.00117037
2070	0.00102407
2082	0.00109722
2094	0.000877776
2106	0.000950924
2118	0.00138981
2130	0.00124352
2142	0.00124352
2154	0.00117037
2166	0.00117037
2178	0.00102407
2190	0.00109722
2202	0.000804628
2214	0.000950924
2226	0.000950924
2238	0.000804628
2250	0.000804628
2262	0.000658332
2274	0.00138981
2286	0.00160926
2298	0.00219444
2310	0.00263333
2322	0.00285277
2334	0.00219444
2346	0.0016824
2358	0.00153611
2370	0.000512036
2382	0.00138981
2394	0.000658332
2406	0.00036574
2418	0.000146296
2430	0.000292592
2442	0.000658332
2454	0.00109722
2466	0.00109722
2478	0.000658332
2490	0.000658332
2502	0.000292592
2514	0.000585184
2526	0.000585184
2538	0.000658332
2550	0.00073148
2562	0.00073148
2574	0.00131666
2586	0.00117037
2598	0.00146296
2610	0.00175555
2622	0.00212129
2634	0.00241388
2646	0.00292592
2658	0.00336481
2670	0.00358425
2682	0.00468147
2694	0.00614443
2706	0.00680276
2718	0.00753424
2730	0.00863146
2742	0.00892406
2754	0.00987498
2766	0.0109722
2778	0.0122157
2790	0.0147027
2802	0.0190185
2814	0.0275768
2826	0.0417675
2838	0.0682471
2850	0.111404
2862	0.152733
2874	0.153391
2886	0.127058
2898	0.118427
2910	0.14732
2922	0.188283
2934	0.208911
2946	0.190843
2958	0.156244
2970	0.133934
2982	0.126619
2994	0.0817063
3006	0.035111
3018	0.0155805
3030	0.00921665
3042	0.00694906
3054	0.0056324
3066	0.00482777
3078	0.00431573
3090	0.00343796
3102	0.00292592
3114	0.00212129
3126	0.00160926
3138	0.00146296
3150	0.0016824
3162	0.000950924
3174	0.00102407
3186	0.00102407
3198	0.000804628
3210	0.00073148
3222	0.00131666
3234	0.00146296
3246	0.000804628
3258	0.00138981
3270	0.00160926
3282	0.00153611
3294	0.00190185
3306	0.00190185
3318	0.00248703
3330	0.00409629
3342	0.00672962
3354	0.00614443
3366	0.00285277
3378	0.00219444
3390	0.00292592
3402	0.0054861
3414	0.00965554
3426	0.0073148
3438	0.0056324
3450	0.00358425
3462	0.00212129
3474	0.00175555
3486	0.00241388
3498	0.00175555
3510	0.00138981
3522	0.00138981
3534	0.00138981
3546	0.00117037
3558	0.00131666
3570	0.00160926
3582	0.000219444
3594	0.000658332
3606	0.000950924
3618	0.000292592
3630	0.00190185
3642	0.00036574
3654	0.00036574
3666	0.00160926
3678	0.00036574
3690	0.00102407
3702	0.000950924
3714	0.00036574
3726	0.00073148
3738	0.00109722
3750	0.00117037
3762	0.000877776
3774	0.000438888
3786	0.00109722
3798	0.00109722
3810	0.00160926
3822	0.00102407
3834	0.0016824
3846	0.00175555
3858	0.000950924
3870	0.0018287
3882	0.00153611
3894	0.00073148
3906	0.00138981
3918	0.0016824
3930	0.00248703
3942	0.00204814
3954	0.00138981
3966	0.00153611
