Infrared Spectrum: Octyl thioglycolate
Formula: C 10 H 20 O 2 S
CAS: 7664-80-4
Origin: Sadtler Research Labs Under US-EPA Contract
1/CM	ABSORBANCE
450	0.0388098
462	0.00505644
474	0.00663247
486	0.0108352
498	0.0116232
510	0.0111636
522	0
534	0.00453109
546	0.00545044
558	0.0098502
570	0.00866818
582	0.0107696
594	0.0120829
606	0.0131336
618	0.00814283
630	0.00788016
642	0.00617279
654	0.00577878
666	0.00925919
678	0.0125426
690	0.0167453
702	0.018781
714	0.0233121
726	0.0285656
738	0.0214734
750	0.0201601
762	0.0154976
774	0.0135276
786	0.0121486
798	0.0131336
810	0.0116889
822	0.0123456
834	0.00991587
846	0.015235
858	0.0186497
870	0.0151693
882	0.0183214
894	0.017008
906	0.0178617
918	0.018584
930	0.0222615
942	0.0235748
954	0.0392695
966	0.0530597
978	0.0558178
990	0.0585102
1002	0.0679664
1014	0.0861564
1026	0.0986333
1038	0.0935769
1050	0.0724318
1062	0.0618593
1074	0.0564088
1086	0.0457049
1098	0.0489883
1110	0.0698708
1122	0.123587
1134	0.237193
1146	0.372666
1158	0.327224
1170	0.250655
1182	0.179471
1194	0.136327
1206	0.124638
1218	0.146965
1230	0.177829
1242	0.194049
1254	0.216967
1266	0.330835
1278	0.353951
1290	0.335695
1302	0.236011
1314	0.118859
1326	0.0669814
1338	0.0491853
1350	0.0397291
1362	0.0386785
1374	0.0366427
1386	0.0487257
1398	0.033031
1410	0.0357234
1422	0.0692797
1434	0.0455079
1446	0.0491197
1458	0.0749272
1470	0.0841864
1482	0.0396635
1494	0.0179274
1506	0.0127396
1518	0.00847117
1530	0.00742048
1542	0.00242972
1554	0.00518777
1566	0.00531911
1578	0.0032834
1590	0.00269239
1602	0.00216704
1614	0.00269239
1626	0.00545044
1638	0.00354607
1650	0.00505644
1662	0.00610712
1674	0.00650113
1686	0.00814283
1698	0.0149066
1710	0.0313236
1722	0.0571312
1734	0.124704
1746	0.299906
1758	0.559426
1770	0.289071
1782	0.105988
1794	0.0464273
1806	0.0223271
1818	0.0133963
1830	0.0112949
1842	0.00873384
1854	0.00663247
1866	0.0065668
1878	0.00702648
1890	0.00584445
1902	0.00545044
1914	0.00545044
1926	0.00420275
1938	0.00518777
1950	0.00584445
1962	0.00439976
1974	0.00426842
1986	0.00367741
1998	0.00453109
2010	0.0063698
2022	0.00499077
2034	0.00577878
2046	0.00505644
2058	0.00505644
2070	0.00505644
2082	0.00485943
2094	0.00426842
2106	0.00459676
2118	0.00433409
2130	0.00439976
2142	0.00439976
2154	0.00433409
2166	0.00387441
2178	0.00446542
2190	0.00400575
2202	0.00374308
2214	0.00334907
2226	0.00302073
2238	0.00282372
2250	0.00354607
2262	0.00374308
2274	0.0034804
2286	0.00459676
2298	0.00604146
2310	0.00788016
2322	0.00742048
2334	0.00505644
2346	0.00604146
2358	0.00702648
2370	0.00479376
2382	0.00407142
2394	0.00216704
2406	0.00190437
2418	0.00203571
2430	0.0018387
2442	0.00190437
2454	0.000919352
2466	0.000722348
2478	0.000919352
2490	0.00098502
2502	0.00118202
2514	0.000853684
2526	0.000459676
2538	0.000197004
2550	0.00065668
2562	0.000459676
2574	0.00131336
2586	0.00236405
2598	0.00551611
2610	0.0014447
2622	0.0018387
2634	0.00190437
2646	0.00210138
2658	0.00256105
2670	0.00223271
2682	0.00354607
2694	0.00295506
2706	0.00269239
2718	0.00197004
2730	0.00242972
2742	0.00413708
2754	0.00380874
2766	0.00354607
2778	0.00394008
2790	0.00577878
2802	0.00952186
2814	0.0141186
2826	0.0220644
2838	0.0362487
2850	0.0822163
2862	0.218543
2874	0.229641
2886	0.175334
2898	0.151233
2910	0.220841
2922	0.385405
2934	0.645648
2946	0.539463
2958	0.353819
2970	0.387113
2982	0.176713
2994	0.0777509
3006	0.0349354
3018	0.0189124
3030	0.0110322
3042	0.00748615
3054	0.00407142
3066	0.00242972
3078	0.00170737
3090	0.00151036
3102	0.00098502
3114	0.000788016
3126	0.00124769
3138	0.00131336
3150	0.0014447
3162	0.00151036
3174	0.00137903
3186	0.00170737
3198	0.00105069
3210	0.00065668
3222	0.00098502
3234	0.00170737
3246	0.00098502
3258	0.00111636
3270	0.00065668
3282	0.00111636
3294	0.00197004
3306	0.00137903
3318	0.00170737
3330	0.000919352
3342	0.000853684
3354	0.0014447
3366	0.0014447
3378	0.000919352
3390	0.00124769
3402	0.00242972
3414	0.00137903
3426	0.00229838
3438	0.000853684
3450	0.00157603
3462	0.00242972
3474	0.00321773
3486	0.0049251
3498	0.0051221
3510	0.00302073
3522	0.00170737
3534	0.0018387
3546	0.00236405
3558	0.000919352
3570	0.00170737
3582	0.00242972
3594	0.00111636
3606	0.00249538
3618	0.00282372
3630	0.0018387
3642	0.00177304
3654	0.00315206
3666	0.00518777
3678	0.00242972
3690	0.00262672
3702	0.00236405
3714	0.00282372
3726	0.0032834
3738	0.00137903
3750	0.00288939
3762	0.000722348
3774	0.00321773
3786	0.0018387
3798	0.00288939
3810	0.00439976
3822	0.000525344
3834	0.00367741
3846	0.00288939
3858	0
3870	0.00538478
3882	0.00288939
3894	0.00151036
3906	0.00065668
3918	0.00203571
3930	0.00387441
3942	0.00499077
3954	0.00065668
3966	0.00223271
