Infrared Spectrum: Benzonitrile, 4-hydroxy-
Formula: C 7 H 5 N O
CAS: 767-00-0
Origin: Sadtler Research Labs Under US-EPA Contract
1/CM	ABSORBANCE
450	0.0950535
462	0.0040183
474	0.0218928
486	0.018983
498	0.0112235
510	0.0366496
522	0.0618679
534	0.110157
546	0.161425
558	0.0817516
570	0.0437856
582	0.0338091
594	0.0245255
606	0.0217542
618	0.0164889
630	0.0284745
642	0.0329778
654	0.0266732
666	0.0143412
678	0.0772483
690	0.0736457
702	0.0331163
714	0.0169738
726	0.0175974
738	0.017251
750	0.00824444
762	0.0116392
774	0.0156575
786	0.031315
798	0.064362
810	0.12041
822	0.184911
834	0.309132
846	0.218512
858	0.0861163
870	0.0288902
882	0.0165582
894	0.0098379
906	0.00935293
918	0.0164196
930	0.0225163
942	0.0192601
954	0.0100457
966	0.00678954
978	0.00672026
990	0.00769019
1002	0.00879869
1014	0.0157961
1026	0.0170431
1038	0.0175974
1050	0.0209921
1062	0.0173203
1074	0.0223778
1086	0.0480117
1098	0.0921437
1110	0.0793267
1122	0.0505751
1134	0.0827215
1146	0.162741
1158	0.45095
1170	0.578566
1182	0.658239
1194	0.432036
1206	0.0960235
1218	0.0563255
1230	0.0541777
1242	0.0824444
1254	0.192185
1266	0.579189
1278	0.509077
1290	0.0672719
1302	0.0430235
1314	0.054247
1326	0.137038
1338	0.119925
1350	0.0686575
1362	0.0320771
1374	0.0157961
1386	0.0142026
1398	0.0103922
1410	0.0315921
1422	0.0702509
1434	0.0823058
1446	0.0433006
1458	0.00969934
1470	0.0290287
1482	0.0426078
1494	0.0924901
1506	0.514689
1518	0.581753
1530	0.0638771
1542	0.0161425
1554	0.0286823
1566	0.0392823
1578	0.110226
1590	0.195372
1602	0.325205
1614	0.466192
1626	0.199806
1638	0.0263268
1650	0.0248026
1662	0.0136484
1674	0.0101843
1686	0.0124706
1698	0.00900653
1710	0.00831372
1722	0.00976862
1734	0.00131634
1746	0.00678954
1758	0.0160732
1770	0.0149647
1782	0.00942222
1794	0.00464183
1806	0.00824444
1818	0.00845228
1830	0.00443398
1842	0.0029098
1854	0.0108078
1866	0.012817
1878	0.0160039
1890	0.0187059
1902	0.0184287
1914	0.0107386
1926	0.00678954
1938	0.00540392
1950	0.00685882
1962	0.00630457
1974	0.00713594
1986	0.00727451
1998	0.00782875
2010	0.00845228
2022	0.0065817
2034	0.0065817
2046	0.00429542
2058	0.00450327
2070	0.00554248
2082	0.00616601
2094	0.00748235
2106	0.0100457
2118	0.00741307
2130	0.00381046
2142	0.00304836
2154	0.00297908
2166	0.00318693
2178	0.00450327
2190	0.0040183
2202	0.0054732
2214	0.0200915
2226	0.0851463
2238	0.119025
2250	0.0354026
2262	0.00651241
2274	0.00782875
2286	0.00866013
2298	0.00963006
2310	0.010115
2322	0.00866013
2334	0.00561176
2346	0.0141333
2358	0.00263268
2370	0.011085
2382	0.011085
2394	0.00672026
2406	0.0069281
2418	0.00879869
2430	0.0125399
2442	0.0179438
2454	0.0178052
2466	0.00852156
2478	0.00498823
2490	0.00505751
2502	0.00554248
2514	0.00672026
2526	0.00997646
2538	0.0110157
2550	0.00782875
2562	0.00644313
2574	0.00609673
2586	0.0065817
2598	0.00588888
2610	0.00554248
2622	0.00623529
2634	0.00623529
2646	0.0065817
2658	0.00429542
2670	0.00353333
2682	0.00339477
2694	0.00422614
2706	0.0043647
2718	0.00277124
2730	0.00200915
2742	0.00187059
2754	0.00339477
2766	0.00471111
2778	0.00651241
2790	0.00394902
2802	0.00284052
2814	0.00193987
2826	0.00131634
2838	0.0014549
2850	0.00221699
2862	0.00242484
2874	0.0025634
2886	0.00249412
2898	0.00207843
2910	0.00311765
2922	0.00346405
2934	0.00374117
2946	0.00346405
2958	0.0025634
2970	0.00297908
2982	0.00304836
2994	0.00429542
3006	0.00990718
3018	0.0141333
3030	0.0180823
3042	0.0473882
3054	0.0478039
3066	0.0175281
3078	0.0200222
3090	0.0177359
3102	0.0112928
3114	0.00879869
3126	0.00755163
3138	0.00533464
3150	0.00173203
3162	0.00166274
3174	0.00228627
3186	0.00367189
3198	0.00277124
3210	0.00284052
3222	0.00263268
3234	0.00263268
3246	0.00200915
3258	0.00214771
3270	0.00263268
3282	0.00200915
3294	0.00318693
3306	0.00478039
3318	0.00651241
3330	0.00540392
3342	0.00616601
3354	0.00533464
3366	0.00554248
3378	0.00554248
3390	0.00609673
3402	0.00685882
3414	0.00734379
3426	0.00775947
3438	0.0069281
3450	0.00450327
3462	0.00353333
3474	0.00367189
3486	0.00318693
3498	0.00394902
3510	0.00318693
3522	0.00353333
3534	0.00339477
3546	0.00325621
3558	0.00429542
3570	0.00762091
3582	0.00519608
3594	0.00893725
3606	0.00519608
3618	0.0173203
3630	0.0970627
3642	0.413677
3654	0.428295
3666	0.0793267
3678	0.0217542
3690	0.015034
3702	0.00415686
3714	0.0094915
3726	0.00457255
3738	0.00879869
3750	0.0245948
3762	0.00561176
3774	0.0054732
3786	0.00755163
3798	0.0127477
3810	0.00263268
3822	0.018498
3834	0.011085
3846	0.0112928
3858	0.0163503
3870	0.0118471
3882	0.00713594
3894	0.00609673
3906	0.0153804
3918	0.00956078
3930	0.00706666
3942	0.00741307
3954	0.00817516
3966	0.00720522
