Infrared Spectrum: Benzenamine, N-(1-methylethyl)-
Formula: C 9 H 13 N
CAS: 768-52-5
Origin: Sadtler Research Labs Under US-EPA Contract
1/CM	ABSORBANCE
450	0.0570869
462	0.0527061
474	0.0665329
486	0.0707768
498	0.0928175
510	0.108835
522	0.081318
534	0.0580452
546	0.059688
558	0.0584559
570	0.0600987
582	0.0565393
594	0.046135
606	0.0313499
618	0.0423018
630	0.0483253
642	0.0506526
654	0.0543489
666	0.0681757
678	0.151684
690	0.309802
702	0.197408
714	0.0759789
726	0.0887106
738	0.28653
750	0.430821
762	0.191795
774	0.0522954
786	0.0234097
798	0.0175231
810	0.0184814
822	0.0158803
834	0.0114995
846	0.0355937
858	0.0440815
870	0.0354568
882	0.0165648
894	0.00260108
906	0.00328558
918	0.00616046
930	0.00725565
942	0.00752945
954	0.00451767
966	0.00807704
978	0.0116364
990	0.0288857
1002	0.0451767
1014	0.000958293
1026	0.0376472
1038	0.0323082
1050	0.000136899
1062	0.0112257
1074	0.0332665
1086	0.0228621
1098	0.0262846
1110	0.048736
1122	0.0825501
1134	0.0900795
1146	0.118007
1158	0.173451
1170	0.329516
1182	0.381264
1194	0.142238
1206	0.0621521
1218	0.0507895
1230	0.0696816
1242	0.24149
1254	0.462992
1266	0.204253
1278	0.148399
1290	0.187689
1302	0.435339
1314	0.517341
1326	0.238615
1338	0.161541
1350	0.10815
1362	0.126221
1374	0.181391
1386	0.250114
1398	0.119239
1410	0.082687
1422	0.170439
1434	0.185909
1446	0.07858
1458	0.108287
1470	0.150452
1482	0.193712
1494	0.658484
1506	1.23332
1518	0.39071
1530	0.0896688
1542	0.0628366
1554	0.0539382
1566	0.0603725
1578	0.108424
1590	0.374145
1602	0.9368
1614	0.73063
1626	0.214931
1638	0.0621521
1650	0.0414804
1662	0.0291595
1674	0.0328558
1686	0.0273798
1698	0.0227252
1710	0.0184814
1722	0.0197135
1734	0.024368
1746	0.0264215
1758	0.0265584
1770	0.0169755
1782	0.00821394
1794	0.00958293
1806	0.0130054
1818	0.0179338
1830	0.0175231
1842	0.00862464
1854	0.00410697
1866	0.00451767
1878	0.00355937
1890	0.00725565
1902	0.016291
1914	0.0228621
1926	0.0214931
1938	0.0128685
1950	0.00492836
1962	0.00314868
1974	0.00136899
1986	0.00109519
1998	0.00136899
2010	0.000684495
2022	0.000684495
2034	0.000547596
2046	0.000136899
2058	0.000547596
2070	0.000410697
2082	0.000410697
2094	0.000273798
2106	0.00136899
2118	0.00287488
2130	0.00342248
2142	0.00301178
2154	0.00246418
2166	0.00164279
2178	0.000958293
2190	0.000273798
2202	0.000273798
2214	0.000547596
2226	0.00109519
2238	0.00109519
2250	0.000547596
2262	0
2274	0.000410697
2286	0.000273798
2298	0.000547596
2310	0.00136899
2322	0.00232728
2334	0.00314868
2346	0.00150589
2358	0.00136899
2370	0.00328558
2382	0.00273798
2394	0.00301178
2406	0.00438077
2418	0.00369627
2430	0.00301178
2442	0.00273798
2454	0.00342248
2466	0.00355937
2478	0.00342248
2490	0.00451767
2502	0.00451767
2514	0.00410697
2526	0.00479146
2538	0.00657115
2550	0.012184
2562	0.0171124
2574	0.0113626
2586	0.00821394
2598	0.00711875
2610	0.00711875
2622	0.00971983
2634	0.00971983
2646	0.00780324
2658	0.00657115
2670	0.00643425
2682	0.00602356
2694	0.00479146
2706	0.00410697
2718	0.00616046
2730	0.0104043
2742	0.0102674
2754	0.0106781
2766	0.0117733
2778	0.0110888
2790	0.0123209
2802	0.0167017
2814	0.0234097
2826	0.0277905
2838	0.0320344
2850	0.0383317
2862	0.0588666
2874	0.136762
2886	0.189331
2898	0.154011
2910	0.160719
2922	0.195081
2934	0.239573
2946	0.252989
2958	0.284887
2970	0.536507
2982	0.672995
2994	0.278726
3006	0.101442
3018	0.161267
3030	0.193986
3042	0.15497
3054	0.237246
3066	0.270649
3078	0.161678
3090	0.151821
3102	0.11212
3114	0.067765
3126	0.0317606
3138	0.0132792
3150	0.00917223
3162	0.00862464
3174	0.00862464
3186	0.00821394
3198	0.00821394
3210	0.00835084
3222	0.00670805
3234	0.00451767
3246	0.00273798
3258	0.00150589
3270	0.00136899
3282	0.00219038
3294	0.00260108
3306	0.00177969
3318	0.00150589
3330	0.00136899
3342	0.00260108
3354	0.00205348
3366	0.00301178
3378	0.00492836
3390	0.00903533
3402	0.0171124
3414	0.0294333
3426	0.0362782
3438	0.0314868
3450	0.0232728
3462	0.0141006
3474	0.00821394
3486	0.00465457
3498	0.00314868
3510	0.00260108
3522	0.00273798
3534	0.00177969
3546	0.00314868
3558	0.00191659
3570	0.00314868
3582	0.00177969
3594	0.00438077
3606	0.00150589
3618	0.00397007
3630	0.00588666
3642	0.00383317
3654	0.00465457
3666	0.000273798
3678	0.00971983
3690	0.00438077
3702	0.00314868
3714	0.00588666
3726	0.00451767
3738	0.00438077
3750	0.00479146
3762	0.00438077
3774	0.00246418
3786	0.00273798
3798	0.00355937
3810	0.00273798
3822	0.00821394
3834	0.00479146
3846	0.00657115
3858	0.00794014
3870	0.00711875
3882	0.00807704
3894	0.00629735
3906	0.00821394
3918	0.00465457
3930	0.00465457
3942	0.00369627
3954	0.00438077
3966	0.00314868
