Infrared Spectrum: Benzene, 3-butenyl-
Formula: C 10 H 12
CAS: 768-56-9
Origin: Sadtler Research Labs Under US-EPA Contract
1/CM	ABSORBANCE
450	0
462	0.0128526
474	0.0280523
486	0.0435313
498	0.0331374
510	0.0133556
522	0.0076557
534	0.00866155
546	0.0216259
558	0.0392843
570	0.0448166
582	0.0290581
594	0.0157026
606	0.016429
618	0.0343109
630	0.0665543
642	0.0701865
654	0.055434
666	0.0423019
678	0.0911978
690	0.322992
702	0.425757
714	0.216651
726	0.168984
738	0.259232
750	0.241909
762	0.0993005
774	0.0350933
786	0.0135791
798	0.00860567
810	0.0101703
822	0.0185525
834	0.0158702
846	0.00748805
858	0.0101145
870	0.018776
882	0.0367138
894	0.0810833
906	0.229839
918	0.353447
930	0.156746
942	0.0683983
954	0.0500694
966	0.0581721
978	0.0805245
990	0.143726
1002	0.121206
1014	0.0655484
1026	0.083598
1038	0.0650455
1050	0.0227994
1062	0.0405137
1074	0.0507399
1086	0.0392285
1098	0.0383902
1110	0.0438107
1122	0.0302316
1134	0.0162614
1146	0.0202289
1158	0.0414078
1170	0.0618603
1182	0.0529752
1194	0.0329698
1206	0.0183848
1218	0.00620279
1230	0.0100586
1242	0.0132997
1254	0.0130762
1266	0.0142497
1278	0.00821451
1290	0.0111203
1302	0.0205642
1314	0.0169319
1326	0.0248112
1338	0.044146
1350	0.0233024
1362	0.0133556
1374	0.0138585
1386	0.0155908
1398	0.0151438
1410	0.02537
1422	0.0452077
1434	0.0692924
1446	0.154064
1458	0.151326
1470	0.0725335
1482	0.0433637
1494	0.172225
1506	0.148811
1518	0.0129644
1530	0.0111203
1542	0.0135791
1554	0.0101145
1566	0.011288
1578	0.0218495
1590	0.046493
1602	0.115562
1614	0.0999152
1626	0.0500135
1638	0.137355
1650	0.143111
1662	0.0279964
1674	0.0120703
1686	0.0106733
1698	0.0169319
1710	0.0325227
1722	0.0406255
1734	0.0419108
1746	0.0735953
1758	0.0497341
1770	0.027717
1782	0.0226318
1794	0.0381108
1806	0.0273817
1818	0.0204524
1830	0.0423019
1842	0.0344786
1854	0.0204524
1866	0.0212348
1878	0.0183848
1890	0.00843803
1902	0.00581162
1914	0.00681748
1926	0.0149202
1938	0.0249788
1950	0.0292258
1962	0.0181613
1974	0.00715277
1986	0.00698513
1998	0.00480577
2010	0.00335286
2022	0.00273817
2034	0.00301757
2046	0.00296169
2058	0.00262641
2070	0.00217936
2082	0.00167643
2094	0.00167643
2106	0.00162055
2118	0.00139703
2130	0.00134114
2142	0.00178819
2154	0.00223524
2166	0.00223524
2178	0.00240288
2190	0.00229112
2202	0.00251465
2214	0.00262641
2226	0.00229112
2238	0.002347
2250	0.00240288
2262	0.00268229
2274	0.00301757
2286	0.0035205
2298	0.00452636
2310	0.00698513
2322	0.00514105
2334	0.0032411
2346	0.00357638
2358	0.00284993
2370	0.00284993
2382	0.00402343
2394	0.00251465
2406	0.00223524
2418	0.00217936
2430	0.00201172
2442	0.00184407
2454	0.00156467
2466	0.00139703
2478	0.0011735
2490	0.00139703
2502	0.00145291
2514	0.0020676
2526	0.002347
2538	0.00251465
2550	0.00257053
2562	0.00273817
2574	0.00335286
2586	0.00514105
2598	0.0055881
2610	0.00547634
2622	0.00491753
2634	0.00508517
2646	0.00536458
2658	0.00564398
2670	0.00625867
2682	0.00575574
2694	0.00597927
2706	0.00670572
2718	0.00709689
2730	0.00692924
2742	0.00726453
2754	0.00692924
2766	0.00737629
2778	0.0103939
2790	0.0155908
2802	0.0174908
2814	0.0176584
2826	0.0243082
2838	0.04694
2850	0.1069
2862	0.186866
2874	0.181781
2886	0.123721
2898	0.128303
2910	0.218662
2922	0.376861
2934	0.542493
2946	0.462359
2958	0.236153
2970	0.163843
2982	0.170884
2994	0.176416
3006	0.195416
3018	0.22235
3030	0.392452
3042	0.426484
3054	0.202177
3066	0.333218
3078	0.46655
3090	0.408043
3102	0.196925
3114	0.0909743
3126	0.0393961
3138	0.0176584
3150	0.0129644
3162	0.0116791
3174	0.0104497
3186	0.00525281
3198	0.00329698
3210	0.00296169
3222	0.00284993
3234	0.00217936
3246	0.002347
3258	0.00229112
3270	0.00257053
3282	0.00268229
3294	0.00240288
3306	0.00262641
3318	0.00257053
3330	0.00189995
3342	0.00262641
3354	0.00162055
3366	0.00273817
3378	0.002347
3390	0.00223524
3402	0.00251465
3414	0.00268229
3426	0.00262641
3438	0.00262641
3450	0.00284993
3462	0.00240288
3474	0.00212348
3486	0.00162055
3498	0.00178819
3510	0.00167643
3522	0.002347
3534	0.00162055
3546	0.0020676
3558	0.002347
3570	0.0032411
3582	0.00597927
3594	0.00413519
3606	0.00167643
3618	0.00268229
3630	0.00262641
3642	0.00396755
3654	0.00458224
3666	0.00391167
3678	0.00296169
3690	0.00329698
3702	0.00268229
3714	0.00279405
3726	0.00128526
3738	0.00134114
3750	0.00212348
3762	0.00307346
3774	0.00128526
3786	0.00195583
3798	0.00178819
3810	0.00318522
3822	0.00301757
3834	0.00318522
3846	0.00223524
3858	0.00335286
3870	0.00189995
3882	0.0032411
3894	0.00312934
3906	0.00240288
3918	0.00262641
3930	0.00346462
3942	0.00223524
3954	0.0032411
3966	0.0020676
