Infrared Spectrum: 1-Bromoadamantane
Formula: C 10 H 15 Br
CAS: 768-90-1
Origin: Sadtler Research Labs Under US-EPA Contract
1/CM	ABSORBANCE
450	0.00704622
462	0.0295941
474	0.0381777
486	0.0245977
498	0.0156298
510	0.018192
522	0.0156298
534	0.0224198
546	0.0235728
558	0.0248539
570	0.0267756
582	0.0301066
594	0.0308752
606	0.0285692
618	0.0304909
630	0.0286973
642	0.0272881
654	0.0260069
666	0.023829
678	0.09301
690	0.0392026
702	0.0386901
714	0.0325407
726	0.0315158
738	0.0315158
750	0.0348467
762	0.0522701
774	0.0390745
786	0.0372809
798	0.0482986
810	0.126832
822	0.134519
834	0.0407399
846	0.0361279
858	0.0353592
870	0.0336937
882	0.0331813
894	0.0330532
906	0.0310033
918	0.0312596
930	0.032925
942	0.0507327
954	0.0746899
966	0.0330532
978	0.0406118
990	0.0386901
1002	0.0276724
1014	0.0361279
1026	0.181536
1038	0.130035
1050	0.0431741
1062	0.0427897
1074	0.0353592
1086	0.0349748
1098	0.0618786
1110	0.0643127
1122	0.0503484
1134	0.038562
1146	0.02037
1158	0.0213949
1170	0.0301066
1182	0.0367684
1194	0.0325407
1206	0.0245977
1218	0.0240852
1230	0.024982
1242	0.0234447
1254	0.0247258
1266	0.0235728
1278	0.0342062
1290	0.112996
1302	0.0940349
1314	0.0331813
1326	0.0242134
1338	0.035103
1350	0.0539356
1362	0.0234447
1374	0.0194732
1386	0.0180639
1398	0.018192
1410	0.0220354
1422	0.0265194
1434	0.0367684
1446	0.0666188
1458	0.126576
1470	0.0614942
1482	0.0183202
1494	0.0151173
1506	0.015886
1518	0.017039
1530	0.0175515
1542	0.0167828
1554	0.0166547
1566	0.0163985
1578	0.0179358
1590	0.0143487
1602	0.0112739
1614	0.0122988
1626	0.0140924
1638	0.0144768
1650	0.0151173
1662	0.0149892
1674	0.0151173
1686	0.0149892
1698	0.0151173
1710	0.0162704
1722	0.0198575
1734	0.0228041
1746	0.0244696
1758	0.029466
1770	0.0301066
1782	0.0202419
1794	0.0161422
1806	0.0152454
1818	0.0148611
1830	0.0146049
1842	0.0149892
1854	0.014733
1866	0.0142205
1878	0.0142205
1890	0.0139643
1902	0.0142205
1914	0.014733
1926	0.0148611
1938	0.0151173
1950	0.0146049
1962	0.0143487
1974	0.0143487
1986	0.0146049
1998	0.0142205
2010	0.0144768
2022	0.0143487
2034	0.0144768
2046	0.0146049
2058	0.014733
2070	0.0146049
2082	0.0143487
2094	0.0143487
2106	0.0152454
2118	0.0156298
2130	0.0151173
2142	0.0146049
2154	0.0143487
2166	0.0142205
2178	0.01358
2190	0.0134519
2202	0.0134519
2214	0.0137081
2226	0.0137081
2238	0.01358
2250	0.0138362
2262	0.0131956
2274	0.0126832
2286	0.0106334
2298	0.00614942
2310	0.00153736
2322	0.00486829
2334	0.00909602
2346	0.00384339
2358	0.00832734
2370	0.00653376
2382	0.00704622
2394	0.0129394
2406	0.012427
2418	0.0129394
2430	0.0134519
2442	0.0130675
2454	0.0125551
2466	0.0128113
2478	0.0117864
2490	0.0114021
2502	0.0114021
2514	0.0119145
2526	0.0129394
2538	0.0122988
2550	0.0121707
2562	0.0125551
2574	0.0133238
2586	0.0116583
2598	0.0115302
2610	0.0137081
2622	0.0161422
2634	0.0160141
2646	0.0167828
2658	0.0207543
2670	0.0196013
2682	0.0194732
2694	0.0129394
2706	0.0112739
2718	0.0114021
2730	0.0120426
2742	0.012427
2754	0.0125551
2766	0.0117864
2778	0.0117864
2790	0.0133238
2802	0.0151173
2814	0.0160141
2826	0.0188326
2838	0.0224198
2850	0.0749461
2862	0.261607
2874	0.164113
2886	0.0671312
2898	0.0912165
2910	0.487854
2922	1.28113
2934	0.71897
2946	0.549989
2958	0.166803
2970	0.0270318
2982	0.0143487
2994	0.0110177
3006	0.00896791
3018	0.00871168
3030	0.00768678
3042	0.00768678
3054	0.00717433
3066	0.0069181
3078	0.0069181
3090	0.00678999
3102	0.00807112
3114	0.00653376
3126	0.00614942
3138	0.00538075
3150	0.00550886
3162	0.00448396
3174	0.00474018
3186	0.00474018
3198	0.00499641
3210	0.00474018
3222	0.00435584
3234	0.00461207
3246	0.00461207
3258	0.00576509
3270	0.00755867
3282	0.00422773
3294	0.00435584
3306	0.00371528
3318	0.00435584
3330	0.00384339
3342	0.00345905
3354	0.00358716
3366	0.00409962
3378	0.00525263
3390	0.00640565
3402	0.00422773
3414	0.0029466
3426	0.00256226
3438	0.00166547
3450	0.00217792
3462	0.00204981
3474	0.00269037
3486	0.00230603
3498	0.00204981
3510	0.00128113
3522	0.00153736
3534	0.00128113
3546	0.00204981
3558	0.00230603
3570	0.0019217
3582	0.00204981
3594	0.00307471
3606	0.00307471
3618	0.00256226
3630	0.0029466
3642	0.00256226
3654	0.00204981
3666	0.000896791
3678	0.000256226
3690	0.00217792
3702	0.000896791
3714	0.000512452
3726	0.00256226
3738	0.00230603
3750	0
3762	0
3774	0
3786	0.000128113
3798	0.000512452
3810	0
3822	0.000384339
3834	0.000512452
3846	0
3858	0
3870	0
3882	0
3894	0.000384339
3906	0
3918	0
3930	0
3942	0.000128113
3954	0.000128113
3966	0
