Infrared Spectrum: Propyl nicotinate
Formula: C 9 H 11 N O 2
CAS: 7681-15-4
Origin: Sadtler Research Labs Under US-EPA Contract
1/CM	ABSORBANCE
450	0
462	0.038754
474	0.0270747
486	0.03026
498	0.0504333
510	0.0414084
522	0.0373383
534	0.0337992
546	0.021766
558	0.0299061
570	0.0208812
582	0.0191116
594	0.0288443
606	0.0327374
618	0.043001
630	0.0276056
642	0.0254821
654	0.0290213
666	0.0288443
678	0.0369844
690	0.0884795
702	0.165634
714	0.0996279
726	0.111838
738	0.229693
750	0.221907
762	0.0723762
774	0.0445937
786	0.034507
798	0.0339761
810	0.0445937
822	0.0624665
834	0.0601661
846	0.043178
858	0.0460093
870	0.0454785
882	0.0491946
894	0.0467172
906	0.0523799
918	0.0596352
930	0.0700758
942	0.116793
954	0.081932
966	0.0766232
978	0.0610509
990	0.043355
1002	0.0440628
1014	0.132188
1026	0.315341
1038	0.0937883
1050	0.0760924
1062	0.077685
1074	0.116439
1086	0.203326
1098	0.466287
1110	0.99044
1122	0.816489
1134	0.517251
1146	0.213943
1158	0.124225
1170	0.0930804
1182	0.099451
1194	0.109184
1206	0.0729071
1218	0.0867099
1230	0.145814
1242	0.184568
1254	0.326489
1266	0.987077
1278	1.76959
1290	1.1267
1302	0.302069
1314	0.222791
1326	0.185984
1338	0.09078
1350	0.0815781
1362	0.0672444
1374	0.0810472
1386	0.113431
1398	0.109715
1410	0.128118
1422	0.236948
1434	0.0870638
1446	0.0780389
1458	0.101751
1470	0.128118
1482	0.0936113
1494	0.047425
1506	0.0339761
1518	0.0276056
1530	0.0304369
1542	0.0325605
1554	0.0472481
1566	0.0780389
1578	0.128472
1590	0.288443
1602	0.130242
1614	0.0408775
1626	0.0353918
1638	0.0339761
1650	0.0290213
1662	0.0330913
1674	0.0320296
1686	0.0435319
1698	0.06459
1710	0.082109
1722	0.169173
1734	0.683947
1746	1.12652
1758	0.483629
1770	0.10299
1782	0.0599891
1794	0.056273
1806	0.0426471
1818	0.0309678
1830	0.0238895
1842	0.0253051
1854	0.0231816
1866	0.0226508
1878	0.0228277
1890	0.0253051
1902	0.030083
1914	0.0307909
1926	0.0329144
1938	0.0247743
1950	0.0261899
1962	0.0249512
1974	0.0212351
1986	0.0187577
1998	0.0176959
2010	0.0176959
2022	0.0182268
2034	0.0185807
2046	0.0185807
2058	0.0191116
2070	0.0192885
2082	0.0189346
2094	0.0185807
2106	0.0178729
2118	0.0175189
2130	0.0159263
2142	0.0153954
2154	0.0152185
2166	0.0148646
2178	0.0146876
2190	0.0153954
2202	0.0164572
2214	0.017342
2226	0.017165
2238	0.0164572
2250	0.0155724
2262	0.0148646
2274	0.0148646
2286	0.0150415
2298	0.0161033
2310	0.0153954
2322	0.0139798
2334	0.0118563
2346	0.0122102
2358	0.0145106
2370	0.0134489
2382	0.017165
2394	0.0168111
2406	0.0155724
2418	0.0146876
2430	0.0139798
2442	0.0132719
2454	0.013095
2466	0.0125641
2478	0.0123871
2490	0.0123871
2502	0.013095
2514	0.0134489
2526	0.0134489
2538	0.0141567
2550	0.0141567
2562	0.0143337
2574	0.0136258
2586	0.0138028
2598	0.0139798
2610	0.0143337
2622	0.0145106
2634	0.0138028
2646	0.0134489
2658	0.0136258
2670	0.0132719
2682	0.0136258
2694	0.0146876
2706	0.0143337
2718	0.0141567
2730	0.0143337
2742	0.0169881
2754	0.0185807
2766	0.0185807
2778	0.0182268
2790	0.0184037
2802	0.0182268
2814	0.0199964
2826	0.0228277
2838	0.0267208
2850	0.0330913
2862	0.0472481
2874	0.0665366
2886	0.104229
2898	0.128649
2910	0.109007
2922	0.107414
2934	0.155547
2946	0.196778
2958	0.230224
2970	0.304193
2982	0.383647
2994	0.192708
3006	0.0852942
3018	0.0576886
3030	0.0537955
3042	0.0837016
3054	0.12511
3066	0.0831707
3078	0.0537955
3090	0.0787468
3102	0.0520259
3114	0.026013
3126	0.0230047
3138	0.0231816
3150	0.0240664
3162	0.0207042
3174	0.0198194
3186	0.0182268
3198	0.0166341
3210	0.017165
3222	0.0159263
3234	0.0155724
3246	0.0155724
3258	0.0153954
3270	0.0155724
3282	0.0157494
3294	0.0153954
3306	0.0159263
3318	0.0164572
3330	0.0168111
3342	0.0164572
3354	0.0153954
3366	0.0166341
3378	0.0161033
3390	0.0164572
3402	0.0164572
3414	0.0162802
3426	0.0169881
3438	0.0178729
3450	0.0201733
3462	0.0251282
3474	0.0254821
3486	0.0205272
3498	0.0164572
3510	0.0162802
3522	0.0166341
3534	0.0162802
3546	0.0168111
3558	0.0178729
3570	0.0180498
3582	0.0187577
3594	0.0194655
3606	0.0146876
3618	0.0152185
3630	0.0141567
3642	0.0164572
3654	0.0180498
3666	0.0148646
3678	0.0136258
3690	0.0184037
3702	0.0166341
3714	0.017342
3726	0.0182268
3738	0.0175189
3750	0.0176959
3762	0.0168111
3774	0.0166341
3786	0.0166341
3798	0.0176959
3810	0.0148646
3822	0.017342
3834	0.0162802
3846	0.0168111
3858	0.0175189
3870	0.0143337
3882	0.0178729
3894	0.0143337
3906	0.0178729
3918	0.0184037
3930	0.0141567
3942	0.017342
3954	0.017342
3966	0.0134489
