Infrared Spectrum: 4-t-Butylbenzeneamine
Formula: C 10 H 15 N
CAS: 769-92-6
Origin: Sadtler Research Labs Under US-EPA Contract
1/CM	ABSORBANCE
450	0.170181
462	0.0521263
474	0.123353
486	0.0741845
498	0.0881094
510	0.0654351
522	0.0646957
534	0.134937
546	0.192362
558	0.112879
570	0.0491688
582	0.0442396
594	0.0455951
606	0.055207
618	0.0776349
630	0.139003
642	0.274187
654	0.25866
666	0.184475
678	0.193348
690	0.134197
702	0.125078
714	0.0934083
726	0.0879862
738	0.0936548
750	0.0788672
762	0.0655584
774	0.0690088
786	0.0856448
798	0.125818
810	0.239806
822	0.322616
834	0.197784
846	0.0978446
858	0.0607524
870	0.0451022
882	0.0393104
894	0.0390639
906	0.0405427
918	0.040173
930	0.0396801
942	0.0362296
954	0.0359832
966	0.0359832
978	0.0361064
990	0.0349973
1002	0.0362296
1014	0.0630938
1026	0.0487991
1038	0.0484294
1050	0.060013
1062	0.07554
1074	0.0711037
1086	0.0569323
1098	0.0683926
1110	0.106471
1122	0.0877398
1134	0.0741845
1146	0.0582878
1158	0.0412821
1170	0.038571
1182	0.12779
1194	0.276282
1206	0.0725825
1218	0.046088
1230	0.049292
1242	0.0855216
1254	0.254593
1266	0.606415
1278	0.438452
1290	0.196798
1302	0.0898347
1314	0.0481829
1326	0.0391871
1338	0.041775
1350	0.0768955
1362	0.152805
1374	0.166853
1386	0.0818247
1398	0.0971052
1410	0.0554535
1422	0.050894
1434	0.0527424
1446	0.0695017
1458	0.101542
1470	0.149724
1482	0.147876
1494	0.133458
1506	0.376714
1518	0.826997
1530	0.281827
1542	0.0786207
1554	0.0527424
1566	0.0478132
1578	0.0586575
1590	0.0797298
1602	0.139866
1614	0.337897
1626	0.649792
1638	0.400744
1650	0.110784
1662	0.0516334
1674	0.0325327
1686	0.0239066
1698	0.0209491
1710	0.02785
1722	0.0203329
1734	0.0141715
1746	0.0227975
1758	0.0177451
1770	0.0104745
1782	0.00998163
1794	0.00665442
1806	0.0101049
1818	0.0115836
1830	0.0104745
1842	0.0144179
1854	0.0239066
1866	0.0293287
1878	0.0284661
1890	0.018731
1902	0.0154037
1914	0.0152805
1926	0.0130624
1938	0.0114604
1950	0.0098584
1962	0.00837964
1974	0.00776349
1986	0.00800995
1998	0.00751703
2010	0.00850287
2022	0.00850287
2034	0.00924225
2046	0.00887256
2058	0.010721
2070	0.0114604
2082	0.00936548
2094	0.00813318
2106	0.00776349
2118	0.00714734
2130	0.00665442
2142	0.00554535
2154	0.00517566
2166	0.00418982
2178	0.00431305
2190	0.00431305
2202	0.0036969
2214	0.00406659
2226	0.00345044
2238	0.00308075
2250	0.00308075
2262	0.00394336
2274	0.00566858
2286	0.0061615
2298	0.00591504
2310	0.00603827
2322	0.00603827
2334	0.0036969
2346	0.00345044
2358	0.0036969
2370	0.00382013
2382	0.00480597
2394	0.00418982
2406	0.00320398
2418	0.00320398
2430	0.00357367
2442	0.00320398
2454	0.00209491
2466	0.00209491
2478	0.00184845
2490	0.00110907
2502	0.00024646
2514	0.00012323
2526	0.00160199
2538	0.00271106
2550	0.0036969
2562	0.0049292
2574	0.00480597
2586	0.00345044
2598	0.0036969
2610	0.0036969
2622	0.00418982
2634	0.00357367
2646	0.00468274
2658	0.00628473
2670	0.00603827
2682	0.00542212
2694	0.00591504
2706	0.00776349
2718	0.0112139
2730	0.0110907
2742	0.00948871
2754	0.0102281
2766	0.00911902
2778	0.0102281
2790	0.0117068
2802	0.0115836
2814	0.0161431
2826	0.0197168
2838	0.0255086
2850	0.0439931
2862	0.111893
2874	0.233767
2886	0.263589
2898	0.236355
2910	0.314606
2922	0.325327
2934	0.277391
2946	0.375975
2958	0.890583
2970	1.2164
2982	0.560573
2994	0.189897
3006	0.135676
3018	0.142331
3030	0.233398
3042	0.207396
3054	0.10758
3066	0.103513
3078	0.0856448
3090	0.063217
3102	0.0543444
3114	0.0432537
3126	0.0274803
3138	0.0192239
3150	0.0151573
3162	0.013925
3174	0.0130624
3186	0.0113372
3198	0.012323
3210	0.0146644
3222	0.0140482
3234	0.015527
3246	0.0125695
3258	0.00837964
3270	0.00628473
3282	0.00690088
3294	0.00517566
3306	0.0049292
3318	0.00406659
3330	0.00271106
3342	0.00480597
3354	0.00431305
3366	0.00418982
3378	0.00961194
3390	0.0224279
3402	0.0559464
3414	0.0670371
3426	0.0240298
3438	0.0102281
3450	0.010721
3462	0.017129
3474	0.0301913
3486	0.0436234
3498	0.0480597
3510	0.0317933
3522	0.012323
3534	0.00579181
3546	0.0036969
3558	0.00234137
3570	0.00147876
3582	0.00160199
3594	0.0024646
3606	0.00147876
3618	0.00024646
3630	0
3642	0.00160199
3654	0.00172522
3666	0.00258783
3678	0.0024646
3690	0.00283429
3702	0.00024646
3714	0.00382013
3726	0
3738	0.00172522
3750	0
3762	0.00357367
3774	0
3786	0.00468274
3798	0
3810	0.00394336
3822	0.00209491
3834	0.00012323
3846	0.00653119
3858	0.0073938
3870	0.00357367
3882	0.00850287
3894	0.00764026
3906	0.00640796
3918	0.00443628
3930	0.00480597
3942	0.00283429
3954	0.00850287
3966	0.0117068
