Infrared Spectrum: Propanedioic acid, ethyl(3-methylbutyl)-, diethyl ester
Formula: C 14 H 26 O 4
CAS: 77-24-7
Origin: Sadtler Research Labs Under US-EPA Contract
1/CM	ABSORBANCE
450	0.027229
462	0.0306603
474	0.0193702
486	0.0139466
498	0.0312137
510	0.0160496
522	0.0178206
534	0.020145
546	0.0313244
558	0.0202557
570	0.030771
582	0.0301069
594	0.031103
606	0.0286679
618	0.00985114
630	0.0202557
642	0.00110687
654	0.0230229
666	0.0203664
678	0.0245725
690	0.0344237
702	0.0220267
714	0.0171565
726	0.0234656
738	0.0326527
750	0.0313244
762	0.0350878
774	0.0431679
786	0.041729
798	0.0440534
810	0.0377443
822	0.034313
834	0.0348664
846	0.0335382
858	0.061542
870	0.0659695
882	0.0342023
894	0.0280038
906	0.0237977
918	0.0296641
930	0.0335382
942	0.0315458
954	0.0333168
966	0.0392939
978	0.0484809
990	0.0584427
1002	0.0647519
1014	0.10316
1026	0.238198
1038	0.319111
1050	0.158172
1062	0.112015
1074	0.113676
1086	0.161603
1098	0.311252
1110	0.351763
1122	0.398363
1134	0.521336
1146	0.522221
1158	0.364271
1170	0.275057
1182	0.320771
1194	0.549782
1206	0.641763
1218	0.805027
1230	0.703084
1242	0.480714
1254	0.409763
1266	0.273176
1278	0.199679
1290	0.163153
1302	0.184626
1314	0.138469
1326	0.0954122
1338	0.0927557
1350	0.0823511
1362	0.0846756
1374	0.157618
1386	0.116664
1398	0.0947481
1410	0.0554542
1422	0.048813
1434	0.0616527
1446	0.103603
1458	0.153966
1470	0.177321
1482	0.0978473
1494	0.0458244
1506	0.0316565
1518	0.0253473
1530	0.0216947
1542	0.0206985
1554	0.019813
1566	0.018374
1578	0.0170458
1590	0.0154962
1602	0.0153855
1614	0.016271
1626	0.0171565
1638	0.0174885
1650	0.0191489
1662	0.0209198
1674	0.0280038
1686	0.0370801
1698	0.0566717
1710	0.087
1722	0.145553
1734	0.482485
1746	1.10687
1758	0.657481
1770	0.226576
1782	0.0826832
1794	0.0500305
1806	0.034313
1818	0.0257901
1830	0.0204771
1842	0.0168244
1854	0.0126183
1866	0.012729
1878	0.0128397
1890	0.0137252
1902	0.0129504
1914	0.010626
1926	0.00841221
1938	0.00819084
1950	0.00863359
1962	0.00962977
1974	0.00929771
1986	0.00907633
1998	0.00896565
2010	0.00874427
2022	0.00819084
2034	0.00752672
2046	0.00808015
2058	0.00841221
2070	0.00962977
2082	0.00974046
2094	0.00896565
2106	0.00774809
2118	0.00675191
2130	0.00641985
2142	0.00641985
2154	0.00575572
2166	0.00586641
2178	0.00564504
2190	0.00487023
2202	0.00475954
2214	0.00420611
2226	0.00431679
2238	0.00420611
2250	0.00398473
2262	0.00398473
2274	0.00453817
2286	0.00398473
2298	0.00398473
2310	0.00354198
2322	0.00332061
2334	0.00276718
2346	0.00265649
2358	0.0034313
2370	0.00210305
2382	0.00464885
2394	0.00453817
2406	0.0050916
2418	0.00475954
2430	0.00376336
2442	0.00287786
2454	0.00265649
2466	0.00221374
2478	0.00199237
2490	0.00210305
2502	0.00210305
2514	0.00177099
2526	0.00121756
2538	0.00110687
2550	0.000774809
2562	0.000885496
2574	0.00166031
2586	0.00210305
2598	0.00287786
2610	0.00320992
2622	0.00365267
2634	0.00287786
2646	0.00265649
2658	0.00210305
2670	0.00199237
2682	0.00154962
2694	0.0025458
2706	0.00376336
2718	0.00564504
2730	0.00929771
2742	0.00896565
2754	0.00907633
2766	0.00962977
2778	0.0105153
2790	0.0108473
2802	0.0135038
2814	0.0178206
2826	0.0232443
2838	0.0292214
2850	0.0425038
2862	0.0720572
2874	0.138248
2886	0.235431
2898	0.192263
2910	0.208756
2922	0.241076
2934	0.305275
2946	0.401019
2958	0.478168
2970	0.713046
2982	0.528198
2994	0.330843
3006	0.156401
3018	0.0758206
3030	0.0410649
3042	0.0265649
3054	0.0199237
3066	0.016271
3078	0.0143893
3090	0.0130611
3102	0.0122863
3114	0.010958
3126	0.0108473
3138	0.0100725
3150	0.0102939
3162	0.00951908
3174	0.00951908
3186	0.0076374
3198	0.00664122
3210	0.00586641
3222	0.00453817
3234	0.00453817
3246	0.00376336
3258	0.00354198
3270	0.00243511
3282	0.0025458
3294	0.00221374
3306	0.00287786
3318	0.0025458
3330	0.00409542
3342	0.00332061
3354	0.00475954
3366	0.00619847
3378	0.00453817
3390	0.00453817
3402	0.00320992
3414	0.00276718
3426	0.00409542
3438	0.00431679
3450	0.00653053
3462	0.00675191
3474	0.0101832
3486	0.0115114
3498	0.00796946
3510	0.00431679
3522	0.00287786
3534	0.00287786
3546	0.00354198
3558	0.00409542
3570	0.00409542
3582	0.00442748
3594	0.00287786
3606	0.00287786
3618	0.000885496
3630	0.00232443
3642	0.00265649
3654	0.00188168
3666	0.00420611
3678	0.00332061
3690	0.00376336
3702	0.0034313
3714	0.00177099
3726	0.00132824
3738	0.00332061
3750	0.00409542
3762	0.00320992
3774	0.00398473
3786	0.00431679
3798	0.00475954
3810	0.00320992
3822	0.00210305
3834	0.00265649
3846	0.00354198
3858	0.00520229
3870	0.00531298
3882	0.00575572
3894	0.00619847
3906	0.000996183
3918	0.00320992
3930	0.00475954
3942	0.00121756
3954	0.00188168
3966	0.00464885
