Infrared Spectrum: 1,3-Cyclopentadiene, 1,2,3,4,5,5-hexachloro-
Formula: C 5 Cl 6
CAS: 77-47-4
Origin: Sadtler Research Labs Under US-EPA Contract
1/CM	ABSORBANCE
450	0
462	0.0303213
474	0.0248535
486	0.0317131
498	0.0293271
510	0.0232629
522	0.0289295
534	0.0235611
546	0.0379761
558	0.0399644
570	0.0258476
582	0.0276371
594	0.0301224
606	0.0342978
618	0.0336019
630	0.0286312
642	0.0395668
654	0.0521923
666	0.0811218
678	0.364253
690	0.36982
702	0.24764
714	0.380259
726	0.120092
738	0.0504029
750	0.0520929
762	0.0648179
774	0.0506017
786	0.0663091
798	0.217717
810	0.866989
822	0.411872
834	0.0435433
846	0.031216
858	0.0336019
870	0.036982
882	0.0267424
894	0.0278359
906	0.0280347
918	0.0259471
930	0.0399644
942	0.049707
954	0.0421515
966	0.084999
978	0.0626308
990	0.0314148
1002	0.0281342
1014	0.0333037
1026	0.0564672
1038	0.0318125
1050	0.0243564
1062	0.0259471
1074	0.0293271
1086	0.0282336
1098	0.029526
1110	0.0384732
1122	0.0870867
1134	0.31047
1146	0.298242
1158	0.0847007
1170	0.0769464
1182	0.111642
1194	0.139776
1206	0.0749582
1218	0.204992
1230	0.916895
1242	0.221793
1254	0.0322101
1266	0.0284324
1278	0.0262453
1290	0.0259471
1302	0.0256488
1314	0.0231635
1326	0.0233623
1338	0.024257
1350	0.0236605
1362	0.0245553
1374	0.0250523
1386	0.0244558
1398	0.0257482
1410	0.0226664
1422	0.0208769
1434	0.0207775
1446	0.0222687
1458	0.0217717
1470	0.0221693
1482	0.0215728
1494	0.0217717
1506	0.0228652
1518	0.0219705
1530	0.0220699
1542	0.0255494
1554	0.0345961
1566	0.0724728
1578	0.100905
1590	0.152103
1602	0.550455
1614	0.340294
1626	0.0449351
1638	0.0293271
1650	0.0327072
1662	0.0252512
1674	0.0232629
1686	0.0215728
1698	0.0223681
1710	0.0205787
1722	0.0208769
1734	0.0214734
1746	0.0214734
1758	0.0241576
1770	0.0330054
1782	0.0310172
1794	0.0260465
1806	0.0264441
1818	0.0246547
1830	0.0229646
1842	0.022567
1854	0.0228652
1866	0.0216723
1878	0.0208769
1890	0.0220699
1902	0.0239588
1914	0.0250523
1926	0.0232629
1938	0.0235611
1950	0.0229646
1962	0.0222687
1974	0.0219705
1986	0.0217717
1998	0.0218711
2010	0.0207775
2022	0.0202805
2034	0.0202805
2046	0.0204793
2058	0.0203799
2070	0.0202805
2082	0.0204793
2094	0.0207775
2106	0.0205787
2118	0.0210758
2130	0.0214734
2142	0.0220699
2154	0.0232629
2166	0.0221693
2178	0.0212746
2190	0.0214734
2202	0.0207775
2214	0.0203799
2226	0.0204793
2238	0.0205787
2250	0.0209764
2262	0.0207775
2274	0.0211752
2286	0.0220699
2298	0.0212746
2310	0.0209764
2322	0.0212746
2334	0.0209764
2346	0.0195846
2358	0.0214734
2370	0.0221693
2382	0.0212746
2394	0.0205787
2406	0.0203799
2418	0.0203799
2430	0.0197834
2442	0.0200816
2454	0.0197834
2466	0.019684
2478	0.0200816
2490	0.0204793
2502	0.0202805
2514	0.0203799
2526	0.0208769
2538	0.021374
2550	0.0212746
2562	0.0210758
2574	0.0210758
2586	0.0206781
2598	0.0205787
2610	0.0202805
2622	0.0207775
2634	0.0205787
2646	0.0202805
2658	0.0202805
2670	0.0205787
2682	0.0202805
2694	0.020181
2706	0.0204793
2718	0.0202805
2730	0.0207775
2742	0.0207775
2754	0.0211752
2766	0.0208769
2778	0.0212746
2790	0.021374
2802	0.0218711
2814	0.0208769
2826	0.0204793
2838	0.0206781
2850	0.0206781
2862	0.0208769
2874	0.0206781
2886	0.0204793
2898	0.0210758
2910	0.0208769
2922	0.0208769
2934	0.0212746
2946	0.0215728
2958	0.0207775
2970	0.0211752
2982	0.0209764
2994	0.0208769
3006	0.0206781
3018	0.0204793
3030	0.0207775
3042	0.0207775
3054	0.0202805
3066	0.0205787
3078	0.0206781
3090	0.0206781
3102	0.0205787
3114	0.0207775
3126	0.0205787
3138	0.0205787
3150	0.0210758
3162	0.021374
3174	0.0203799
3186	0.020181
3198	0.019684
3210	0.020181
3222	0.0200816
3234	0.021374
3246	0.0211752
3258	0.0207775
3270	0.0206781
3282	0.0210758
3294	0.0212746
3306	0.0212746
3318	0.0210758
3330	0.0212746
3342	0.0209764
3354	0.0210758
3366	0.0205787
3378	0.0211752
3390	0.0209764
3402	0.0205787
3414	0.0209764
3426	0.0210758
3438	0.0215728
3450	0.0203799
3462	0.0212746
3474	0.0210758
3486	0.0217717
3498	0.0211752
3510	0.0209764
3522	0.0214734
3534	0.0215728
3546	0.0224676
3558	0.0221693
3570	0.0221693
3582	0.0212746
3594	0.0226664
3606	0.0215728
3618	0.0227658
3630	0.0228652
3642	0.023064
3654	0.0241576
3666	0.0195846
3678	0.0257482
3690	0.0227658
3702	0.0218711
3714	0.0228652
3726	0.0227658
3738	0.0239588
3750	0.0204793
3762	0.0216723
3774	0.0217717
3786	0.0212746
3798	0.0224676
3810	0.0195846
3822	0.02545
3834	0.0231635
3846	0.0234617
3858	0.0235611
3870	0.0243564
3882	0.022567
3894	0.0235611
3906	0.0226664
3918	0.0236605
3930	0.0222687
3942	0.0218711
3954	0.021374
3966	0.0212746
