Infrared Spectrum: Meparfynol
Formula: C 6 H 10 O
CAS: 77-75-8
Origin: Sadtler Research Labs Under US-EPA Contract
1/CM	ABSORBANCE
450	0.0207293
462	0.0232737
474	0.0148922
486	0.00718416
498	0.00606164
510	0.00546296
522	0.017212
534	0.0410096
546	0.0904007
558	0.12011
570	0.0709436
582	0.0615144
594	0.0492414
606	0.0431798
618	0.164862
630	0.493013
642	0.74835
654	0.492788
666	0.207742
678	0.069372
690	0.0210286
702	0.0127219
714	0.00710932
726	0.00224505
738	0.00666031
750	0.00164637
762	0.00314307
774	0.00493911
786	0.00883053
798	0.00950404
810	0.00583713
822	0.00538812
834	0.00486427
846	0.00411592
858	0.00553779
870	0.0124974
882	0.0427308
894	0.118613
906	0.232812
918	0.331744
930	0.236928
942	0.0945166
954	0.0286618
966	0.0330771
978	0.0856112
990	0.182822
1002	0.245833
1014	0.219267
1026	0.182897
1038	0.168005
1050	0.131261
1062	0.0782774
1074	0.0560514
1086	0.0716919
1098	0.117491
1110	0.178407
1122	0.249051
1134	0.31543
1146	0.330995
1158	0.329499
1170	0.314157
1182	0.231614
1194	0.158351
1206	0.122729
1218	0.104095
1230	0.102
1242	0.150194
1254	0.26514
1266	0.250622
1278	0.195095
1290	0.180203
1302	0.215001
1314	0.244411
1326	0.25848
1338	0.245608
1350	0.228172
1362	0.204749
1374	0.204674
1386	0.183121
1398	0.0954895
1410	0.03854
1422	0.0355466
1434	0.0578475
1446	0.0989319
1458	0.140465
1470	0.121382
1482	0.0643581
1494	0.0257432
1506	0.014069
1518	0.00808218
1530	0.00636097
1542	0.00763317
1554	0.00927954
1566	0.00673515
1578	0.0113001
1590	0.00606164
1602	0.00531329
1614	0.00733383
1626	0.00523845
1638	0.00561262
1650	0.00329274
1662	0.00142187
1674	0.00239472
1686	0.00890537
1698	0.00613647
1710	0.0044901
1722	0.00680999
1734	0.00673515
1746	0.00583713
1758	0.00329274
1770	0.00269406
1782	0.00291856
1794	0.00187087
1806	0.00224505
1818	0.00261922
1830	0.00426559
1842	0.00636097
1854	0.00336757
1866	0.00224505
1878	0.00202054
1890	0.00246956
1902	0.00276889
1914	0.00426559
1926	0.0044901
1938	0.00419076
1950	0.00314307
1962	0.00329274
1974	0.00321791
1986	0.00209538
1998	0.00224505
2010	0.00246956
2022	0.00194571
2034	0.0012722
2046	0.00179604
2058	0.00351725
2070	0.00187087
2082	0.00224505
2094	0.00493911
2106	0.00568746
2118	0.00546296
2130	0.00419076
2142	0.00276889
2154	0.00314307
2166	0.00254439
2178	0.00246956
2190	0.00306823
2202	0.00276889
2214	0.00254439
2226	0.00321791
2238	0.00314307
2250	0.00381658
2262	0.00411592
2274	0.00351725
2286	0.00246956
2298	0.00187087
2310	0.00336757
2322	0.00987822
2334	0.0117491
2346	0.00366691
2358	0.0155657
2370	0.00029934
2382	0.00029934
2394	0.00381658
2406	0.00411592
2418	0.0044901
2430	0.0029934
2442	0.00291856
2454	0.00276889
2466	0.00246956
2478	0.00269406
2490	0.00246956
2502	0.00179604
2514	0.00254439
2526	0.00217022
2538	0.0014967
2550	0.00194571
2562	0.00179604
2574	0.000972855
2586	0.0012722
2598	0.00202054
2610	0.00336757
2622	0.00396626
2634	0.00396626
2646	0.00561262
2658	0.0062113
2670	0.00478944
2682	0.00366691
2694	0.00291856
2706	0.00246956
2718	0.00321791
2730	0.00463977
2742	0.00838152
2754	0.00883053
2766	0.00823185
2778	0.00763317
2790	0.00800734
2802	0.00995305
2814	0.0124974
2826	0.0178856
2838	0.0255187
2850	0.039438
2862	0.0678005
2874	0.109035
2886	0.166957
2898	0.178332
2910	0.150194
2922	0.193224
2934	0.366766
2946	0.463229
2958	0.355092
2970	0.425437
2982	0.733158
2994	0.644853
3006	0.261024
3018	0.0573236
3030	0.0184842
3042	0.0129465
3054	0.0114498
3066	0.0148922
3078	0.0168379
3090	0.0147425
3102	0.0110756
3114	0.00927954
3126	0.00957888
3138	0.00942921
3150	0.00763317
3162	0.00688482
3174	0.00838152
3186	0.00673515
3198	0.00695965
3210	0.00838152
3222	0.00658548
3234	0.00868086
3246	0.00703449
3258	0.00688482
3270	0.0165385
3282	0.0309069
3294	0.0796993
3306	0.173767
3318	0.408973
3330	0.441676
3342	0.207293
3354	0.0276141
3366	0.0174366
3378	0.0103272
3390	0.00606164
3402	0.00755833
3414	0.00568746
3426	0.00546296
3438	0.00658548
3450	0.00568746
3462	0.00800734
3474	0.00942921
3486	0.00830668
3498	0.00912987
3510	0.00725899
3522	0.0062113
3534	0.0062113
3546	0.0014967
3558	0.00568746
3570	0.00359208
3582	0.00733383
3594	0.00583713
3606	0.0101776
3618	0.0270903
3630	0.103796
3642	0.174291
3654	0.128866
3666	0.0528335
3678	0.0141438
3690	0.00538812
3702	0.00501394
3714	0.00546296
3726	0.00673515
3738	0.00269406
3750	0.00651064
3762	0.00374175
3774	0.00508878
3786	0.00755833
3798	0.00336757
3810	0.00785767
3822	0.00396626
3834	0.00680999
3846	0
3858	0.0014967
3870	0.00164637
3882	0.00366691
3894	0.00995305
3906	0.000972855
3918	0.00778284
3930	0.00643581
3942	0.0122729
3954	0.00853119
3966	0.00875569
