Infrared Spectrum: 3-Pentanol, 3-methyl-
Formula: C 6 H 14 O
CAS: 77-74-7
Origin: Sadtler Research Labs Under US-EPA Contract
1/CM	ABSORBANCE
450	0
462	0.0136489
474	0.00978599
486	0.0135201
498	0.00386289
510	0.00515052
522	0.0118462
534	0.0114599
546	0.0122325
558	0.0123612
570	0.00888465
582	0.0093997
594	0.0101723
606	0.010301
618	0.00978599
630	0.00862712
642	0.0104298
654	0.00811207
666	0.00901341
678	0.00721073
690	0.00914217
702	0.0166104
714	0.0155803
726	0.00965723
738	0.00540805
750	0.00553681
762	0.00785454
774	0.0105586
786	0.0171255
798	0.0155803
810	0.00914217
822	0.00759702
834	0.00579434
846	0.00566557
858	0.00824083
870	0.0263964
882	0.0669568
894	0.151554
906	0.249156
918	0.209497
930	0.0907779
942	0.0405603
954	0.0688882
966	0.146919
978	0.205892
990	0.173959
1002	0.129664
1014	0.0854986
1026	0.0596173
1038	0.0733949
1050	0.0948983
1062	0.0981174
1074	0.0737812
1086	0.0522778
1098	0.0589735
1110	0.0934819
1122	0.149623
1134	0.191728
1146	0.20718
1158	0.241302
1170	0.265638
1182	0.231516
1194	0.166104
1206	0.107131
1218	0.0777729
1230	0.0748113
1242	0.0898766
1254	0.109964
1266	0.115887
1278	0.109964
1290	0.107002
1302	0.102238
1314	0.0900053
1326	0.086915
1338	0.0924518
1350	0.106616
1362	0.147305
1374	0.220313
1386	0.23628
1398	0.136489
1410	0.056527
1422	0.0436507
1434	0.0567845
1446	0.117046
1458	0.208854
1470	0.212201
1482	0.12078
1494	0.0444232
1506	0.0213747
1518	0.0149365
1530	0.0122325
1542	0.0123612
1554	0.0130051
1566	0.0126188
1578	0.0121037
1590	0.0100435
1602	0.0083696
1614	0.00811207
1626	0.00669568
1638	0.00708196
1650	0.00656691
1662	0.00708196
1674	0.0069532
1686	0.00798331
1698	0.0069532
1710	0.00553681
1722	0.00540805
1734	0.0045067
1746	0.00424918
1758	0.00437794
1770	0.00502176
1782	0.00463547
1794	0.00476423
1806	0.00489299
1818	0.00463547
1830	0.00386289
1842	0.00283279
1854	0.00283279
1866	0.00270402
1878	0.00360536
1890	0.00360536
1902	0.00321908
1914	0.00321908
1926	0.0034766
1938	0.00283279
1950	0.00283279
1962	0.0024465
1974	0.00218897
1986	0.00218897
1998	0.00167392
2010	0.00193144
2022	0.00206021
2034	0.00257526
2046	0.00270402
2058	0.00321908
2070	0.00386289
2082	0.00399165
2094	0.00321908
2106	0.00296155
2118	0.00283279
2130	0.00334784
2142	0.00360536
2154	0.00386289
2166	0.00386289
2178	0.00360536
2190	0.00296155
2202	0.00270402
2214	0.00193144
2226	0.00257526
2238	0.00270402
2250	0.00399165
2262	0.00373413
2274	0.00424918
2286	0.00476423
2298	0.00515052
2310	0.00605186
2322	0.00540805
2334	0.0045067
2346	0.00515052
2358	0.0034766
2370	0.0045067
2382	0.00669568
2394	0.00566557
2406	0.00553681
2418	0.00540805
2430	0.00527928
2442	0.00527928
2454	0.00502176
2466	0.00437794
2478	0.00437794
2490	0.0045067
2502	0.0045067
2514	0.00476423
2526	0.00437794
2538	0.00424918
2550	0.00489299
2562	0.00502176
2574	0.00566557
2586	0.0059231
2598	0.00682444
2610	0.0069532
2622	0.0069532
2634	0.00772578
2646	0.00901341
2658	0.0083696
2670	0.00965723
2682	0.010301
2694	0.0105586
2706	0.0109449
2718	0.0135201
2730	0.0175118
2742	0.0220185
2754	0.0224048
2766	0.0216322
2778	0.0220185
2790	0.0251088
2802	0.0289717
2814	0.0352811
2826	0.045067
2838	0.064124
2850	0.115243
2862	0.189282
2874	0.257397
2886	0.380881
2898	0.426592
2910	0.40496
2922	0.526126
2934	0.727253
2946	0.746439
2958	0.744121
2970	1.09114
2982	1.20381
2994	0.609693
3006	0.179367
3018	0.0663129
3030	0.044552
3042	0.0355386
3054	0.0336071
3066	0.0346372
3078	0.0338647
3090	0.0309031
3102	0.0257526
3114	0.020087
3126	0.0163529
3138	0.0159666
3150	0.0157091
3162	0.0164817
3174	0.0172542
3186	0.0155803
3198	0.0137776
3210	0.0118462
3222	0.0093997
3234	0.0069532
3246	0.00412042
3258	0.00502176
3270	0.00502176
3282	0.00515052
3294	0.00321908
3306	0.00412042
3318	0.00476423
3330	0.00399165
3342	0.00399165
3354	0.00489299
3366	0.00373413
3378	0.00605186
3390	0.00605186
3402	0.00630939
3414	0.00669568
3426	0.0059231
3438	0.0059231
3450	0.00553681
3462	0.00437794
3474	0.00502176
3486	0.00296155
3498	0.00412042
3510	0.0034766
3522	0.00334784
3534	0.00283279
3546	0.00180268
3558	0.00270402
3570	0.00309031
3582	0.00424918
3594	0.00437794
3606	0.00682444
3618	0.0166104
3630	0.0489299
3642	0.0830521
3654	0.0606474
3666	0.0231773
3678	0.00682444
3690	0.00476423
3702	0.00399165
3714	0.00437794
3726	0.00296155
3738	0.00373413
3750	0.00334784
3762	0.00489299
3774	0.0059231
3786	0.00502176
3798	0.00798331
3810	0.00605186
3822	0.00424918
3834	0.00798331
3846	0.00360536
3858	0.00270402
3870	0.00386289
3882	0.00656691
3894	0.00373413
3906	0.00566557
3918	0.00643815
3930	0.00424918
3942	0.0069532
3954	0.00888465
3966	0.00669568
