Infrared Spectrum: 4,7-Methano-1H-indene, 3a,4,7,7a-tetrahydro-
Formula: C 10 H 12
CAS: 77-73-6
Origin: Sadtler Research Labs Under US-EPA Contract
1/CM	ABSORBANCE
450	0
462	0.0586772
474	0.117488
486	0.132324
498	0.0415686
510	0.0193808
522	0.0176433
534	0.00989091
546	0.0113612
558	0.0121632
570	0.00761868
582	0.0156383
594	0.0132324
606	0.014569
618	0.0216531
630	0.0243263
642	0.0374251
654	0.0346182
666	0.137671
678	0.142616
690	0.112944
702	0.0870133
714	0.17015
726	0.331212
738	0.324796
750	0.364627
762	0.354202
774	0.0844738
786	0.0346182
798	0.0654939
810	0.120696
822	0.102117
834	0.0445091
846	0.0191135
858	0.0217867
870	0.0322123
882	0.0409003
894	0.106661
906	0.126443
918	0.130854
930	0.0866123
942	0.0779244
954	0.0545337
966	0.0300737
978	0.0318113
990	0.0457121
1002	0.0352865
1014	0.0338162
1026	0.046113
1038	0.0299401
1050	0.0129651
1062	0.015772
1074	0.0171086
1086	0.0219204
1098	0.0239253
1110	0.0209848
1122	0.0284698
1134	0.0442418
1146	0.0366231
1158	0.0350192
1170	0.0271332
1182	0.0147027
1194	0.0122968
1206	0.0155047
1218	0.0260639
1230	0.040232
1242	0.0664295
1254	0.0874143
1266	0.0494546
1278	0.0330143
1290	0.0328806
1302	0.0435735
1314	0.0429052
1326	0.047316
1338	0.107998
1350	0.112142
1362	0.0542664
1374	0.0316777
1386	0.0300737
1398	0.0252619
1410	0.0212521
1422	0.0249946
1434	0.0491872
1446	0.0971715
1458	0.0947656
1470	0.0422369
1482	0.0180442
1494	0.0139007
1506	0.0130988
1518	0.0110939
1530	0.00935627
1542	0.0118958
1554	0.0124305
1566	0.0192472
1578	0.0272668
1590	0.0255293
1602	0.0347519
1614	0.0514595
1626	0.048118
1638	0.0411676
1650	0.0346182
1662	0.0199155
1674	0.0181779
1686	0.0215194
1698	0.0205838
1710	0.0156383
1722	0.0143017
1734	0.0134998
1746	0.0118958
1758	0.0122968
1770	0.0121632
1782	0.0117622
1794	0.0120295
1806	0.0129651
1818	0.0147027
1830	0.0160393
1842	0.0139007
1854	0.0130988
1866	0.0141681
1878	0.0132324
1890	0.0122968
1902	0.0118958
1914	0.0126978
1926	0.0134998
1938	0.0116285
1950	0.0101582
1962	0.0104256
1974	0.0105592
1986	0.00975725
1998	0.00908895
2010	0.00935627
2022	0.00989091
2034	0.0114948
2046	0.0137671
2058	0.0133661
2070	0.0124305
2082	0.0136334
2094	0.0133661
2106	0.0116285
2118	0.0106929
2130	0.0105592
2142	0.0113612
2154	0.0133661
2166	0.0134998
2178	0.0134998
2190	0.0147027
2202	0.0148364
2214	0.015371
2226	0.01497
2238	0.0126978
2250	0.0108265
2262	0.0105592
2274	0.0104256
2286	0.0105592
2298	0.0110939
2310	0.0104256
2322	0.00962359
2334	0.00828698
2346	0.007886
2358	0.00922261
2370	0.00895529
2382	0.00962359
2394	0.00935627
2406	0.00868797
2418	0.00895529
2430	0.00935627
2442	0.0100246
2454	0.00882163
2466	0.00842064
2478	0.00895529
2490	0.00908895
2502	0.0101582
2514	0.0102919
2526	0.00962359
2538	0.00868797
2550	0.00922261
2562	0.00975725
2574	0.0100246
2586	0.0105592
2598	0.0102919
2610	0.00868797
2622	0.00721769
2634	0.00748502
2646	0.00721769
2658	0.00761868
2670	0.00721769
2682	0.00695037
2694	0.00801966
2706	0.00935627
2718	0.00895529
2730	0.00948993
2742	0.0102919
2754	0.0100246
2766	0.0112275
2778	0.0105592
2790	0.00962359
2802	0.0117622
2814	0.0133661
2826	0.0163066
2838	0.0490536
2850	0.177769
2862	0.253421
2874	0.261976
2886	0.267322
2898	0.38334
2910	0.532505
2922	0.523283
2934	0.645449
2946	0.723641
2958	0.721769
2970	1.29397
2982	1.034
2994	0.249545
3006	0.0283361
3018	0.0223214
3030	0.0359548
3042	0.166675
3054	0.443086
3066	0.460863
3078	0.226422
3090	0.0819342
3102	0.0366231
3114	0.0290044
3126	0.0253956
3138	0.0283361
3150	0.0287371
3162	0.0163066
3174	0.00922261
3186	0.00828698
3198	0.00828698
3210	0.0110939
3222	0.015371
3234	0.015371
3246	0.0110939
3258	0.00962359
3270	0.00908895
3282	0.0085543
3294	0.00761868
3306	0.00801966
3318	0.00761868
3330	0.00761868
3342	0.0085543
3354	0.00828698
3366	0.0085543
3378	0.00962359
3390	0.0110939
3402	0.00975725
3414	0.0113612
3426	0.0133661
3438	0.0121632
3450	0.00895529
3462	0.0085543
3474	0.00748502
3486	0.00748502
3498	0.007886
3510	0.00735136
3522	0.00775234
3534	0.00815332
3546	0.00775234
3558	0.00748502
3570	0.00721769
3582	0.007886
3594	0.00748502
3606	0.00708403
3618	0.00815332
3630	0.007886
3642	0.00801966
3654	0.00748502
3666	0.00842064
3678	0.00922261
3690	0.00962359
3702	0.00775234
3714	0.007886
3726	0.00868797
3738	0.00681671
3750	0.00708403
3762	0.00815332
3774	0.0104256
3786	0.0105592
3798	0.00681671
3810	0.00681671
3822	0.00842064
3834	0.00935627
3846	0.00815332
3858	0.00895529
3870	0.00801966
3882	0.00828698
3894	0.00695037
3906	0.00721769
3918	0.00868797
3930	0.00948993
3942	0.00708403
3954	0.00695037
3966	0.00828698
