Infrared Spectrum: Acetyl triethyl citrate
Formula: C 14 H 22 O 8
CAS: 77-89-4
Origin: Sadtler Research Labs Under US-EPA Contract
1/CM	ABSORBANCE
450	0.00298452
462	0.0293026
474	0.0219769
486	0.0265894
498	0.0245545
510	0.0200777
522	0.0175001
534	0.0165505
546	0.013566
558	0.013566
570	0.0137017
582	0.0137017
594	0.0180428
606	0.0259111
618	0.0160079
630	0.0154652
642	0.0229265
654	0.0299809
666	0.0181784
678	0.00773262
690	0.00081396
702	0.00176358
714	0.00230622
726	0.00162792
738	0.0047481
750	0.00691866
762	0.0126164
774	0.0245545
786	0.0312018
798	0.0269963
810	0.0227909
822	0.0210273
834	0.0237405
846	0.0318801
858	0.047074
870	0.0424616
882	0.0248258
894	0.0162792
906	0.0210273
918	0.0306592
930	0.0504655
942	0.0609113
954	0.0625393
966	0.0405623
978	0.0344576
990	0.047481
1002	0.0850588
1014	0.185854
1026	0.374693
1038	0.457717
1050	0.362077
1062	0.293568
1074	0.253142
1086	0.217327
1098	0.254091
1110	0.237948
1122	0.240661
1134	0.30944
1146	0.386088
1158	0.530024
1170	0.790898
1182	0.949077
1194	0.890879
1206	0.785743
1218	0.780452
1230	0.768378
1242	0.573299
1254	0.433705
1266	0.425158
1278	0.432077
1290	0.354344
1302	0.260739
1314	0.207831
1326	0.197792
1338	0.217463
1350	0.233878
1362	0.204575
1374	0.397484
1386	0.17785
1398	0.124672
1410	0.107578
1422	0.119923
1434	0.116803
1446	0.0912992
1458	0.0819386
1470	0.0914348
1482	0.0652525
1494	0.0326941
1506	0.0255041
1518	0.0210273
1530	0.0161435
1542	0.0189924
1554	0.013973
1566	0.0113954
1578	0.0119381
1590	0.0116668
1602	0.00976752
1614	0.0115311
1626	0.0142443
1638	0.0154652
1650	0.0229265
1662	0.020756
1674	0.0260467
1686	0.0392057
1698	0.0526361
1710	0.0790898
1722	0.140137
1734	0.280816
1746	0.754541
1758	1.3566
1770	1.01107
1782	0.394228
1794	0.147191
1806	0.0799037
1818	0.0488376
1830	0.033508
1842	0.027539
1854	0.0191281
1866	0.0165505
1878	0.0157366
1890	0.013566
1902	0.0111241
1914	0.0103102
1926	0.00732564
1938	0.006783
1950	0.00651168
1962	0.00556206
1974	0.00583338
1986	0.00529074
1998	0.00447678
2010	0.00529074
2022	0.00637602
2034	0.00637602
2046	0.00732564
2058	0.006783
2070	0.0061047
2082	0.0061047
2094	0.00515508
2106	0.00461244
2118	0.00461244
2130	0.00379848
2142	0.00325584
2154	0.00298452
2166	0.0020349
2178	0.0020349
2190	0.00149226
2202	0.00094962
2214	0.00162792
2226	0.00149226
2238	0.00162792
2250	0.0020349
2262	0.00176358
2274	0.00162792
2286	0.00244188
2298	0.00244188
2310	0.00366282
2322	0.00447678
2334	0.00352716
2346	0.00325584
2358	0.00366282
2370	0.00149226
2382	0.00298452
2394	0.00230622
2406	0.00244188
2418	0.00244188
2430	0.00217056
2442	0.00162792
2454	0.00189924
2466	0.00162792
2478	0.0013566
2490	0.00108528
2502	0.00054264
2514	0.00054264
2526	0.00027132
2538	0.00013566
2550	0.00040698
2562	0.00054264
2574	0.00040698
2586	0.00040698
2598	0.0006783
2610	0.00054264
2622	0.00108528
2634	0.00040698
2646	0.00027132
2658	0.00027132
2670	0.00027132
2682	0.00054264
2694	0.0006783
2706	0.00081396
2718	0.00149226
2730	0.00244188
2742	0.00257754
2754	0.00325584
2766	0.00461244
2778	0.0061047
2790	0.00583338
2802	0.00569772
2814	0.00664734
2826	0.00922488
2838	0.0103102
2850	0.0130234
2862	0.0188567
2874	0.0294382
2886	0.0514151
2898	0.0500585
2910	0.0683726
2922	0.0718998
2934	0.0931984
2946	0.171746
2958	0.126435
2970	0.158044
2982	0.258025
2994	0.246494
3006	0.13878
3018	0.0762409
3030	0.0416476
3042	0.0261824
3054	0.0181784
3066	0.0138373
3078	0.0123451
3090	0.0100388
3102	0.00936054
3114	0.00800394
3126	0.0074613
3138	0.00664734
3150	0.00596904
3162	0.00515508
3174	0.00461244
3186	0.00420546
3198	0.00352716
3210	0.00257754
3222	0.00284886
3234	0.00257754
3246	0.0020349
3258	0.00149226
3270	0.0013566
3282	0.0013566
3294	0.00149226
3306	0.00149226
3318	0.00122094
3330	0.0013566
3342	0.00162792
3354	0.00122094
3366	0.00162792
3378	0.00149226
3390	0.00189924
3402	0.00230622
3414	0.00230622
3426	0.00217056
3438	0.00352716
3450	0.00379848
3462	0.00529074
3474	0.00800394
3486	0.0108528
3498	0.0115311
3510	0.0094962
3522	0.00773262
3534	0.00759696
3546	0.00854658
3558	0.00936054
3570	0.00800394
3582	0.00759696
3594	0.00501942
3606	0.00461244
3618	0.0040698
3630	0.00284886
3642	0.00149226
3654	0.00122094
3666	0
3678	0.0020349
3690	0.00149226
3702	0.00094962
3714	0.00162792
3726	0.0006783
3738	0.00230622
3750	0.00189924
3762	0.00122094
3774	0.00162792
3786	0.00162792
3798	0.00257754
3810	0.00094962
3822	0.00379848
3834	0.0027132
3846	0.00257754
3858	0.00284886
3870	0.00257754
3882	0.00189924
3894	0.0020349
3906	0.00108528
3918	0.00284886
3930	0.00325584
3942	0.00284886
3954	0.0020349
3966	0.00217056
