Infrared Spectrum: 1,3-Propanediol, 2-(hydroxymethyl)-2-methyl-
Formula: C 5 H 12 O 3
CAS: 77-85-0
Origin: Sadtler Research Labs Under US-EPA Contract
1/CM	ABSORBANCE
450	0.051126
462	0.0519707
474	0.0493963
486	0.0417536
498	0.0370472
510	0.0303699
522	0.0230489
534	0.0168543
546	0.0152855
558	0.0139581
570	0.0197907
582	0.0222846
594	0.0218824
606	0.0218824
618	0.0121882
630	0.0062751
642	0.00406273
654	0.00341913
666	0.00414317
678	0.0020917
690	0.00229283
702	0.00181013
714	0.00345935
726	0.001609
738	0.00325823
750	0.00522925
762	0.00426385
774	0.00325823
786	0.0035398
798	0.00374092
810	0.00422362
822	0.00394205
834	0.0046661
846	0.00716005
858	0.0126709
870	0.0190667
882	0.0222042
894	0.024135
906	0.0275541
918	0.0272726
930	0.0265887
942	0.0263474
954	0.036645
966	0.0505628
978	0.06078
990	0.0821797
1002	0.1251
1014	0.215646
1026	0.326104
1038	0.395693
1050	0.383425
1062	0.271237
1074	0.136001
1086	0.0696697
1098	0.0633141
1110	0.0729279
1122	0.0696295
1134	0.0605386
1146	0.0629924
1158	0.0663713
1170	0.0638371
1182	0.0560334
1194	0.0476666
1206	0.0481896
1218	0.0471839
1230	0.0470633
1242	0.0487125
1254	0.0502008
1266	0.0520914
1278	0.0507237
1290	0.049155
1302	0.0473046
1314	0.0433223
1326	0.0406273
1338	0.0407077
1350	0.0432017
1362	0.0500801
1374	0.0572402
1386	0.0598548
1398	0.0633141
1410	0.074899
1422	0.0748587
1434	0.0529361
1446	0.0405468
1458	0.0547865
1470	0.0682216
1482	0.0520109
1494	0.0250602
1506	0.0116653
1518	0.00587285
1530	0.00486723
1542	0.00394205
1554	0.00358003
1566	0.00366048
1578	0.00410295
1590	0.00406273
1602	0.0043443
1614	0.0038616
1626	0.00349957
1638	0.00329845
1650	0.00245372
1662	0.00217215
1674	0.00201125
1686	0.00197102
1698	0.00374092
1710	0.00378115
1722	0.00430408
1734	0.00446498
1746	0.0028962
1758	0.00309733
1770	0.0017699
1782	0.00172968
1794	0.0006436
1806	0.00104585
1818	0.00116653
1830	0
1842	0.000844725
1854	0.00088495
1866	0.00088495
1878	0.00116653
1890	0.000764275
1902	0.000764275
1914	0.000925175
1926	0.0012872
1938	0.001609
1950	0.00213193
1962	0.00293643
1974	0.00329845
1986	0.00366048
1998	0.0033789
2010	0.00281575
2022	0.00285598
2034	0.00349957
2046	0.00458565
2058	0.00534993
2070	0.00575217
2082	0.00494768
2094	0.00362025
2106	0.00253418
2118	0.00201125
2130	0.0014481
2142	0.000844725
2154	0.00108608
2166	0.00088495
2178	0.000844725
2190	0.00072405
2202	0.00088495
2214	0.00116653
2226	0.00124697
2238	0.001609
2250	0.0017699
2262	0.00189058
2274	0.0020917
2286	0.00261463
2298	0.00265485
2310	0.0022526
2322	0.00245372
2334	0.00217215
2346	0.00269508
2358	0.00293643
2370	0.00172968
2382	0.0028962
2394	0.00205148
2406	0.00185035
2418	0.00217215
2430	0.0022526
2442	0.0019308
2454	0.00185035
2466	0.00205148
2478	0.00172968
2490	0.00205148
2502	0.0017699
2514	0.00201125
2526	0.00168945
2538	0.00164923
2550	0.0017699
2562	0.00168945
2574	0.00172968
2586	0.00172968
2598	0.0019308
2610	0.00233305
2622	0.00281575
2634	0.00293643
2646	0.0038616
2658	0.00454543
2670	0.00603375
2682	0.00716005
2694	0.0072405
2706	0.0083668
2718	0.0101367
2730	0.0127513
2742	0.0151648
2754	0.0176186
2766	0.0194689
2778	0.021279
2790	0.0223651
2802	0.0252211
2814	0.0292436
2826	0.0363634
2838	0.0482298
2850	0.0709167
2862	0.108849
2874	0.164681
2886	0.200763
2898	0.172485
2910	0.156676
2922	0.186443
2934	0.21271
2946	0.208728
2958	0.190868
2970	0.1609
2982	0.0999591
2994	0.0439257
3006	0.018584
3018	0.0106596
3030	0.0074014
3042	0.00667735
3054	0.0057924
3066	0.00494768
3078	0.00478678
3090	0.00430408
3102	0.00374092
3114	0.003218
3126	0.00309733
3138	0.00245372
3150	0.0025744
3162	0.0024135
3174	0.00249395
3186	0.0022526
3198	0.00201125
3210	0.001609
3222	0.00172968
3234	0.00140788
3246	0.00156878
3258	0.00156878
3270	0.00181013
3282	0.0017699
3294	0.0009654
3306	0.00136765
3318	0.00124697
3330	0.0017699
3342	0.00185035
3354	0.001609
3366	0.00185035
3378	0.0017699
3390	0.00189058
3402	0.0025744
3414	0.00313755
3426	0.00378115
3438	0.00494768
3450	0.00478678
3462	0.00454543
3474	0.00430408
3486	0.00410295
3498	0.0046661
3510	0.00599353
3522	0.00824612
3534	0.0123893
3546	0.0230892
3558	0.0388976
3570	0.053982
3582	0.0682618
3594	0.0882134
3606	0.0893799
3618	0.0611018
3630	0.0392194
3642	0.0360014
3654	0.053459
3666	0.089742
3678	0.0923968
3690	0.0492354
3702	0.0174979
3714	0.0094931
3726	0.00832658
3738	0.00571195
3750	0.00430408
3762	0.00382138
3774	0.0035398
3786	0.00329845
3798	0.00205148
3810	0.00185035
3822	0.00181013
3834	0.0017699
3846	0.00164923
3858	0.00181013
3870	0.00168945
3882	0.0017699
3894	0.00172968
3906	0.00205148
3918	0.00281575
3930	0.00285598
3942	0.000683825
3954	0.00185035
3966	0.0033789
