Infrared Spectrum: Tributyl acetylcitrate
Formula: C 20 H 34 O 8
CAS: 77-90-7
Origin: Sadtler Research Labs Under US-EPA Contract
1/CM	ABSORBANCE
450	0.0185877
462	0.0205375
474	0.0126084
486	0.0204075
498	0.0223572
510	0.0207974
522	0.0205375
534	0.0181978
546	0.0115686
558	0.0114386
570	0.00870893
582	0.0120885
594	0.0185877
606	0.0237871
618	0.0115686
630	0.0148182
642	0.0204075
654	0.0288564
666	0.0200175
678	0.00857894
690	0.00129984
702	0.00181978
714	0.00181978
726	0.00454944
738	0.0115686
750	0.0135183
762	0.0142982
774	0.0214474
786	0.0287265
798	0.0272966
810	0.024567
822	0.0239171
834	0.0300263
846	0.0300263
858	0.0204075
870	0.0213174
882	0.0213174
894	0.024567
906	0.0295064
918	0.0310662
930	0.0436746
942	0.0802001
954	0.125825
966	0.151041
978	0.124265
990	0.122055
1002	0.16391
1014	0.24671
1026	0.229682
1038	0.226302
1050	0.266987
1062	0.32886
1074	0.295844
1086	0.197836
1098	0.167939
1110	0.181198
1122	0.236311
1134	0.317031
1146	0.401781
1158	0.543593
1170	0.827088
1182	0.922366
1194	0.801871
1206	0.726611
1218	0.745198
1230	0.745978
1242	0.57128
1254	0.433757
1266	0.429727
1278	0.454554
1290	0.378643
1302	0.238651
1314	0.188997
1326	0.192506
1338	0.213044
1350	0.253469
1362	0.24632
1374	0.249309
1386	0.169499
1398	0.134403
1410	0.0955382
1422	0.109317
1434	0.113996
1446	0.0941084
1458	0.112826
1470	0.121405
1482	0.0674617
1494	0.032756
1506	0.0254769
1518	0.0207974
1530	0.0168979
1542	0.0175478
1554	0.0140383
1566	0.0106587
1578	0.0105287
1590	0.0100088
1602	0.00857894
1614	0.0101388
1626	0.0128684
1638	0.0142982
1650	0.0213174
1662	0.0191076
1674	0.0237871
1686	0.0366555
1698	0.0496539
1710	0.0774705
1722	0.135443
1734	0.277776
1746	0.790953
1758	1.29984
1770	0.912488
1782	0.360706
1794	0.140123
1806	0.0776004
1818	0.0467942
1830	0.0313261
1842	0.0254769
1854	0.0178078
1866	0.0142982
1878	0.0124785
1890	0.0100088
1902	0.00844896
1914	0.00844896
1926	0.00610925
1938	0.0057193
1950	0.00584928
1962	0.00493939
1974	0.00545933
1986	0.00493939
1998	0.00441946
2010	0.00532934
2022	0.00610925
2034	0.0057193
2046	0.0064992
2058	0.00545933
2070	0.00519936
2082	0.00532934
2094	0.00441946
2106	0.0040295
2118	0.00428947
2130	0.00350957
2142	0.00337958
2154	0.0032496
2166	0.00285965
2178	0.00285965
2190	0.00233971
2202	0.00168979
2214	0.00181978
2226	0.00168979
2238	0.00129984
2250	0.00168979
2262	0.00142982
2274	0.00129984
2286	0.00194976
2298	0.00259968
2310	0.00259968
2322	0.00285965
2334	0.00233971
2346	0.0024697
2358	0.00207974
2370	0.000519936
2382	0.00259968
2394	0.00233971
2406	0.00181978
2418	0.00194976
2430	0.00168979
2442	0.00129984
2454	0.00129984
2466	0.000909888
2478	0.000389952
2490	0.000389952
2502	0.000259968
2514	0.000259968
2526	0.000129984
2538	0.000259968
2550	0
2562	0.000389952
2574	0.00103987
2586	0.00142982
2598	0.00168979
2610	0.00155981
2622	0.00129984
2634	0.00129984
2646	0.00142982
2658	0.00194976
2670	0.0024697
2682	0.00311962
2694	0.00350957
2706	0.0040295
2718	0.00454944
2730	0.00584928
2742	0.00766906
2754	0.00948883
2766	0.00987878
2778	0.0102687
2790	0.0110486
2802	0.0129984
2814	0.016638
2826	0.0217073
2838	0.0310662
2850	0.0543333
2862	0.0847496
2874	0.142852
2886	0.211094
2898	0.167419
2910	0.189127
2922	0.24359
2934	0.295064
2946	0.40269
2958	0.421928
2970	0.627303
2982	0.339388
2994	0.16092
3006	0.0826698
3018	0.0510837
3030	0.0373054
3042	0.0276866
3054	0.0196276
3066	0.0155981
3078	0.0135183
3090	0.0114386
3102	0.0097488
3114	0.00831898
3126	0.00701914
3138	0.00610925
3150	0.00558931
3162	0.00493939
3174	0.0040295
3186	0.00337958
3198	0.00363955
3210	0.00285965
3222	0.00181978
3234	0.00155981
3246	0.000779904
3258	0.000909888
3270	0.00103987
3282	0.000909888
3294	0.000909888
3306	0.00116986
3318	0.00116986
3330	0.00103987
3342	0.00142982
3354	0.00116986
3366	0.00129984
3378	0.00116986
3390	0.00129984
3402	0.00194976
3414	0.00155981
3426	0.00220973
3438	0.00285965
3450	0.00259968
3462	0.0040295
3474	0.0064992
3486	0.00935885
3498	0.00948883
3510	0.00662918
3522	0.00506938
3534	0.00415949
3546	0.00389952
3558	0.00467942
3570	0.00467942
3582	0.00532934
3594	0.00363955
3606	0.0032496
3618	0.00181978
3630	0.000909888
3642	0.00103987
3654	0.00129984
3666	0.000519936
3678	0.00129984
3690	0.00155981
3702	0.00142982
3714	0.00116986
3726	0.00103987
3738	0.000779904
3750	0.00233971
3762	0.000779904
3774	0.00142982
3786	0.00155981
3798	0.00129984
3810	0.00103987
3822	0.00116986
3834	0.000389952
3846	0.00233971
3858	0.00194976
3870	0.00207974
3882	0.00129984
3894	0.00168979
3906	0.00155981
3918	0.000389952
3930	0.000129984
3942	0.00129984
3954	0.000519936
3966	0.00129984
