Infrared Spectrum: Butyl citrate
Formula: C 18 H 32 O 7
CAS: 77-94-1
Origin: Sadtler Research Labs Under US-EPA Contract
1/CM	ABSORBANCE
450	0.0275656
462	0.0290812
474	0.0315441
486	0.0307863
498	0.0326808
510	0.0310705
522	0.0229239
534	0.0272814
546	0.0219767
558	0.017335
570	0.0255763
582	0.0212188
594	0.0186612
606	0.0219767
618	0.025671
630	0.0161036
642	0.0103252
654	0.0157247
666	0.0186612
678	0.0045469
690	0.00255763
702	0.00483108
714	0.00568362
726	0.00729398
738	0.0116514
750	0.0154405
762	0.00824125
774	0.0154405
786	0.0203663
798	0.0195138
810	0.0198927
822	0.0168614
834	0.0282286
846	0.0186612
858	0.013546
870	0.0147774
882	0.0181876
894	0.0241554
906	0.0275656
918	0.0284181
930	0.0396906
942	0.0700033
954	0.113578
966	0.122008
978	0.0920746
990	0.0902748
1002	0.120587
1014	0.150142
1026	0.114999
1038	0.0923588
1050	0.124377
1062	0.205747
1074	0.203947
1086	0.164541
1098	0.168235
1110	0.190685
1122	0.201484
1134	0.223461
1146	0.297538
1158	0.465299
1170	0.72362
1182	0.866847
1194	0.779319
1206	0.624156
1218	0.477424
1230	0.401927
1242	0.378624
1254	0.343954
1266	0.298295
1278	0.263909
1290	0.224882
1302	0.20802
1314	0.216072
1326	0.239186
1338	0.261825
1350	0.240228
1362	0.157057
1374	0.120682
1386	0.148627
1398	0.141806
1410	0.113672
1422	0.0990844
1434	0.0908432
1446	0.0708558
1458	0.101737
1470	0.107705
1482	0.0572151
1494	0.0258605
1506	0.0233976
1518	0.0161983
1530	0.0106094
1542	0.0159141
1554	0.00852543
1566	0.00814652
1578	0.00682034
1590	0.00397853
1602	0.00435744
1614	0.00369435
1626	0.00852543
1638	0.0084307
1650	0.0103252
1662	0.0107042
1674	0.0185665
1686	0.0323966
1698	0.0487844
1710	0.085349
1722	0.175624
1734	0.342249
1746	0.733566
1758	0.891286
1770	0.411684
1782	0.150142
1794	0.0705716
1806	0.0347648
1818	0.021503
1830	0.0117461
1842	0.0115567
1854	0.00549417
1866	0.00568362
1878	0.00445217
1890	0.00341017
1902	0.00473635
1914	0.00312599
1926	0.00388381
1938	0.00217872
1950	0.00416799
1962	0.00094727
1974	0.0035049
1986	0.00322072
1998	0.00274708
2010	0.00464162
2022	0.00236818
2034	0.0049258
2046	0.00312599
2058	0.00644144
2070	0.00473635
2082	0.00426272
2094	0.00378908
2106	0.00284181
2118	0.00520999
2130	0.00312599
2142	0.00530471
2154	0.00236818
2166	0.00265236
2178	0.0035049
2190	0.00341017
2202	0.00464162
2214	0.00189454
2226	0.00388381
2238	0.00217872
2250	0.00359963
2262	0.00359963
2274	0.00378908
2286	0.0045469
2298	0.00303126
2310	0.00833598
2322	0.00748343
2334	0.00994634
2346	0.0107989
2358	0.0106094
2370	0.00918852
2382	0.00625198
2394	0.0059678
2406	0.0035049
2418	0.00691507
2430	0.00132618
2442	0.00388381
2454	0.00274708
2466	0.00397853
2478	0.00464162
2490	0.00293654
2502	0.00416799
2514	0.00132618
2526	0.00426272
2538	0.00189454
2550	0.00397853
2562	0.00407326
2574	0.00435744
2586	0.00558889
2598	0.00473635
2610	0.0049258
2622	0.00331545
2634	0.00539944
2646	0.00539944
2658	0.00539944
2670	0.00691507
2682	0.00653616
2694	0.00956743
2706	0.00615726
2718	0.00852543
2730	0.00833598
2742	0.0110831
2754	0.0119356
2766	0.011462
2778	0.0123145
2790	0.0127881
2802	0.0164825
2814	0.0167667
2826	0.0248185
2838	0.0301232
2850	0.0540891
2862	0.0820336
2874	0.134039
2886	0.199495
2898	0.155731
2910	0.176571
2922	0.226113
2934	0.280676
2946	0.378055
2958	0.387528
2970	0.581529
2982	0.325671
2994	0.155921
3006	0.0750238
3018	0.0446164
3030	0.0285128
3042	0.0231134
3054	0.0179034
3066	0.0124092
3078	0.0117461
3090	0.00890434
3102	0.0109883
3114	0.00530471
3126	0.0070098
3138	0.00568362
3150	0.00530471
3162	0.00729398
3174	0.00539944
3186	0.00464162
3198	0.00502053
3210	0.00445217
3222	0.00274708
3234	0.00397853
3246	0.0024629
3258	0.00341017
3270	0.00445217
3282	0.00284181
3294	0.00293654
3306	0.00322072
3318	0.00265236
3330	0.00483108
3342	0.00293654
3354	0.0045469
3366	0.00397853
3378	0.00530471
3390	0.0045469
3402	0.00738871
3414	0.00710453
3426	0.0115567
3438	0.0143985
3450	0.0182823
3462	0.0195138
3474	0.0234923
3486	0.0261447
3498	0.0241554
3510	0.0299337
3522	0.0325861
3534	0.0401642
3546	0.0481213
3558	0.0468899
3570	0.0410168
3582	0.0285128
3594	0.0237765
3606	0.0207452
3618	0.017335
3630	0.0121251
3642	0.00539944
3654	0.00435744
3666	0.00341017
3678	0.00615726
3690	0.00445217
3702	0.00132618
3714	0.00179981
3726	0
3738	0.00473635
3750	0.00378908
3762	0.000378908
3774	9.4727e-05
3786	9.4727e-05
3798	9.4727e-05
3810	9.4727e-05
3822	9.4727e-05
3834	9.4727e-05
3846	9.4727e-05
3858	9.4727e-05
3870	9.4727e-05
3882	9.4727e-05
3894	9.4727e-05
3906	9.4727e-05
3918	9.4727e-05
3930	9.4727e-05
3942	9.4727e-05
3954	9.4727e-05
3966	9.4727e-05
