Infrared Spectrum: Ethyl citrate
Formula: C 12 H 20 O 7
CAS: 77-93-0
Origin: Sadtler Research Labs Under US-EPA Contract
1/CM	ABSORBANCE
450	0.0304015
462	0.0188009
474	0.0150674
486	0.0073337
498	0.00760038
510	0.0033335
522	0.00386686
534	0.0117339
546	0.00986716
558	0.0100005
570	0.0144007
582	0.0109339
594	0.0109339
606	0.0138674
618	0.0130673
630	0.0120006
642	0.0124006
654	0.0128006
666	0.0145341
678	0.00413354
690	0.00026668
702	0.00306682
714	0.00360018
726	0.00520026
738	0.00653366
750	0.006667
762	0.0100005
774	0.0212011
786	0.0284014
798	0.0269347
810	0.0272014
822	0.0234678
834	0.0281347
846	0.0385353
858	0.0542694
870	0.0497358
882	0.0242679
894	0.019201
906	0.0313349
918	0.0445356
930	0.0545361
942	0.0584029
954	0.0386686
966	0.0236012
978	0.0254679
990	0.0380019
1002	0.0758705
1014	0.178942
1026	0.384819
1038	0.392286
1050	0.261613
1062	0.231878
1074	0.221478
1086	0.234545
1098	0.317483
1110	0.32495
1122	0.282014
1134	0.290548
1146	0.371752
1158	0.593096
1170	0.903912
1182	1.13326
1194	1.13726
1206	0.926713
1218	0.710702
1230	0.577229
1242	0.505359
1254	0.45949
1266	0.398687
1278	0.333483
1290	0.298148
1302	0.303882
1314	0.309882
1326	0.328016
1338	0.359485
1350	0.272414
1362	0.182276
1374	0.346417
1386	0.210544
1398	0.178276
1410	0.164942
1422	0.150541
1434	0.126406
1446	0.093738
1458	0.0906712
1470	0.108139
1482	0.0772039
1494	0.0358685
1506	0.0250679
1518	0.019201
1530	0.0153341
1542	0.0168008
1554	0.0134673
1566	0.0104005
1578	0.0108005
1590	0.00973382
1602	0.0086671
1614	0.0100005
1626	0.013734
1638	0.0140007
1650	0.0209344
1662	0.0206677
1674	0.027468
1686	0.0453356
1698	0.0661366
1710	0.113072
1722	0.238145
1734	0.451489
1746	0.977916
1758	1.3334
1770	0.685101
1782	0.241612
1794	0.0960048
1806	0.052936
1818	0.032535
1830	0.0209344
1842	0.0174675
1854	0.0128006
1866	0.0118673
1878	0.0118673
1890	0.0105339
1902	0.00840042
1914	0.00746704
1926	0.00573362
1938	0.0053336
1950	0.00560028
1962	0.00426688
1974	0.00426688
1986	0.00360018
1998	0.00293348
2010	0.00386686
2022	0.00453356
2034	0.00453356
2046	0.0060003
2058	0.0053336
2070	0.0053336
2082	0.00546694
2094	0.00440022
2106	0.00373352
2118	0.0033335
2130	0.0026668
2142	0.0020001
2154	0.00146674
2166	0.0006667
2178	0.00040002
2190	0.00026668
2202	0.00013334
2214	0.0006667
2226	0.00093338
2238	0.00093338
2250	0.0013334
2262	0.00146674
2274	0.0013334
2286	0.00120006
2298	0.00053336
2310	0.00040002
2322	0.00106672
2334	0.00040002
2346	0.00146674
2358	0.00120006
2370	0.0006667
2382	0.00226678
2394	0.00240012
2406	0.0026668
2418	0.0026668
2430	0.00226678
2442	0.00120006
2454	0.00106672
2466	0.0013334
2478	0.00106672
2490	0.00106672
2502	0.00053336
2514	0.00053336
2526	0.00040002
2538	0.00040002
2550	0.00040002
2562	0.0006667
2574	0.00040002
2586	0.00040002
2598	0.0006667
2610	0.00080004
2622	0.0006667
2634	0.00040002
2646	0.00013334
2658	0.00040002
2670	0.00080004
2682	0.0006667
2694	0.00120006
2706	0.00120006
2718	0.00146674
2730	0.00293348
2742	0.0033335
2754	0.00360018
2766	0.00506692
2778	0.006667
2790	0.00680034
2802	0.00693368
2814	0.00853376
2826	0.0108005
2838	0.0122673
2850	0.0145341
2862	0.0213344
2874	0.034135
2886	0.060403
2898	0.0601363
2910	0.0812041
2922	0.0880044
2934	0.115472
2946	0.207744
2958	0.150941
2970	0.184009
2982	0.312816
2994	0.316549
3006	0.176809
3018	0.092938
3030	0.047069
3042	0.0276014
3054	0.0184009
3066	0.013734
3078	0.0113339
3090	0.00946714
3102	0.00906712
3114	0.00813374
3126	0.00746704
3138	0.00773372
3150	0.00653366
3162	0.00640032
3174	0.00560028
3186	0.0046669
3198	0.0046669
3210	0.00373352
3222	0.00346684
3234	0.00280014
3246	0.00280014
3258	0.00173342
3270	0.0020001
3282	0.00173342
3294	0.0020001
3306	0.00253346
3318	0.00213344
3330	0.0020001
3342	0.0033335
3354	0.00293348
3366	0.00346684
3378	0.00440022
3390	0.00560028
3402	0.006667
3414	0.00893378
3426	0.0114672
3438	0.0153341
3450	0.020001
3462	0.0250679
3474	0.0290681
3486	0.0322683
3498	0.0338684
3510	0.0365352
3522	0.0426688
3534	0.052936
3546	0.0628031
3558	0.0640032
3570	0.0504025
3582	0.0377352
3594	0.0296015
3606	0.0276014
3618	0.0218678
3630	0.012934
3642	0.00520026
3654	0.00226678
3666	0.0026668
3678	0.0006667
3690	0.00026668
3702	0.00053336
3714	0.00053336
3726	0.00013334
3738	0.00040002
3750	0.00146674
3762	0.00080004
3774	0.00093338
3786	0.00053336
3798	0.00026668
3810	0.00253346
3822	0.0013334
3834	0.00040002
3846	0.00093338
3858	0.00120006
3870	0.00013334
3882	0.0013334
3894	0.00080004
3906	0.0006667
3918	0.00093338
3930	0.00026668
3942	0.00013334
3954	0.00013334
3966	0.00186676
