Infrared Spectrum: 9-Octadecene-1,12-diol
Formula: C 18 H 36 O 2
CAS: 7706-08-3
Origin: Sadtler Research Labs Under US-EPA Contract
1/CM	ABSORBANCE
450	0
462	0.0381542
474	0.0334077
486	0.0410751
498	0.0327688
510	0.0332708
522	0.0368307
534	0.038565
546	0.0361461
558	0.0382911
570	0.0387475
582	0.032997
594	0.0371958
606	0.0338641
618	0.0355528
630	0.0402536
642	0.0334534
654	0.036785
666	0.0338185
678	0.0350964
690	0.0397972
702	0.0443611
714	0.0444524
726	0.0479666
738	0.0458216
750	0.0395234
762	0.0388388
774	0.0376978
786	0.0333621
798	0.036922
810	0.0355528
822	0.0357353
834	0.0386562
846	0.0381998
858	0.0408013
870	0.0440873
882	0.04071
894	0.0400254
906	0.041714
918	0.040208
930	0.0419422
942	0.0433571
954	0.0449088
966	0.0479666
978	0.0513895
990	0.0543104
1002	0.0593763
1014	0.0665417
1026	0.0783622
1038	0.0923277
1050	0.0958875
1062	0.086851
1074	0.0756695
1086	0.0649899
1098	0.0587374
1110	0.0565011
1122	0.0551776
1134	0.0514808
1146	0.049427
1158	0.0473733
1170	0.0488794
1182	0.0492445
1194	0.0484686
1206	0.0491076
1218	0.0497465
1230	0.0501573
1242	0.0508418
1254	0.0517546
1266	0.0523479
1278	0.052211
1290	0.050066
1302	0.0491076
1314	0.0486512
1326	0.0493358
1338	0.0515264
1350	0.0573682
1362	0.0580984
1374	0.0586005
1386	0.0611563
1398	0.0541279
1410	0.0492445
1422	0.0444067
1434	0.0476471
1446	0.0565011
1458	0.0677283
1470	0.0593307
1482	0.0444067
1494	0.0372871
1506	0.0338185
1518	0.0331339
1530	0.0321299
1542	0.0316278
1554	0.0320386
1566	0.0314909
1578	0.0317191
1590	0.0317191
1602	0.0314909
1614	0.0317191
1626	0.0321299
1638	0.0322211
1650	0.0324493
1662	0.0322668
1674	0.0320386
1686	0.0342293
1698	0.0345944
1710	0.037424
1722	0.0376978
1734	0.0387475
1746	0.0413033
1758	0.04071
1770	0.0417597
1782	0.0410295
1794	0.036922
1806	0.0340011
1818	0.0319017
1830	0.0305781
1842	0.0301217
1854	0.0296197
1866	0.0298023
1878	0.0293915
1890	0.0291177
1902	0.0296197
1914	0.029209
1926	0.0292546
1938	0.0291633
1950	0.0295741
1962	0.0291633
1974	0.029209
1986	0.0289808
1998	0.0294372
2010	0.0292546
2022	0.0288895
2034	0.029711
2046	0.0294828
2058	0.029711
2070	0.029711
2082	0.0303043
2094	0.0295741
2106	0.0293915
2118	0.029209
2130	0.0288895
2142	0.0294372
2154	0.0288895
2166	0.0291633
2178	0.0286613
2190	0.0286613
2202	0.0283875
2214	0.0283418
2226	0.0281593
2238	0.0283418
2250	0.0285244
2262	0.0286157
2274	0.0283875
2286	0.0296197
2298	0.0296654
2310	0.0311714
2322	0.030715
2334	0.0279767
2346	0.0280223
2358	0.0295741
2370	0.0263337
2382	0.0272921
2394	0.027429
2406	0.0279311
2418	0.0282049
2430	0.0277485
2442	0.0278854
2454	0.0282505
2466	0.0281136
2478	0.027429
2490	0.0280223
2502	0.0276116
2514	0.0277029
2526	0.0278854
2538	0.0277485
2550	0.0280223
2562	0.0276572
2574	0.0263337
2586	0.0279311
2598	0.0277029
2610	0.0279311
2622	0.0283418
2634	0.0277942
2646	0.0277485
2658	0.0310802
2670	0.0322668
2682	0.0319017
2694	0.0326775
2706	0.0334077
2718	0.0334077
2730	0.0348682
2742	0.0343662
2754	0.03464
2766	0.0356441
2778	0.0368307
2790	0.0380629
2802	0.0411664
2814	0.0448175
2826	0.0505224
2838	0.0638033
2850	0.102277
2862	0.188535
2874	0.17749
2886	0.145771
2898	0.143033
2910	0.194513
2922	0.300168
2934	0.45639
2946	0.328966
2958	0.191045
2970	0.155081
2982	0.0870792
2994	0.0586918
3006	0.057779
3018	0.0663135
3030	0.0460498
3042	0.0362374
3054	0.0344118
3066	0.0325862
3078	0.0314453
3090	0.0292546
3102	0.0303043
3114	0.0288895
3126	0.0293002
3138	0.0291177
3150	0.0302587
3162	0.0296197
3174	0.0300761
3186	0.0295284
3198	0.0290264
3210	0.0293459
3222	0.0313996
3234	0.0319929
3246	0.0306238
3258	0.0295284
3270	0.029711
3282	0.0286613
3294	0.0282505
3306	0.0288438
3318	0.0282049
3330	0.0270183
3342	0.0277942
3354	0.0292546
3366	0.02857
3378	0.0271096
3390	0.0290264
3402	0.029072
3414	0.0269726
3426	0.0296654
3438	0.0284331
3450	0.0295284
3462	0.0275203
3474	0.029072
3486	0.028068
3498	0.0267901
3510	0.030213
3522	0.0282505
3534	0.0287982
3546	0.0286157
3558	0.0311258
3570	0.0333621
3582	0.0338185
3594	0.0322668
3606	0.0333165
3618	0.0343662
3630	0.0356897
3642	0.035781
3654	0.039569
3666	0.0436309
3678	0.038565
3690	0.0317191
3702	0.0299848
3714	0.0300761
3726	0.0301217
3738	0.0305325
3750	0.0299392
3762	0.0307607
3774	0.0276116
3786	0.0287069
3798	0.0277029
3810	0.0294372
3822	0.0319473
3834	0.0298023
3846	0.0291177
3858	0.0263793
3870	0.0299848
3882	0.0282962
3894	0.0297566
3906	0.0326319
3918	0.0300761
3930	0.032495
3942	0.0301674
3954	0.0287069
3966	0.0316735
