Infrared Spectrum: Phenol, pentafluoro-
Formula: C 6 H F 5 O
CAS: 771-61-9
Origin: Sadtler Research Labs Under US-EPA Contract
1/CM	ABSORBANCE
450	0.00406722
462	0.00792037
474	0.00331799
486	0.00171251
498	0.00454886
510	0.00412073
522	0.00107032
534	0.00685005
546	0.00219416
558	0.00406722
570	0.0043348
582	0.00128438
594	0.0050305
606	0
618	0.00454886
630	0.00717114
642	0.00529808
654	0.00331799
666	0.00160548
678	0.00342502
690	0.00492347
702	0.00513754
714	0.00422776
726	0.00305041
738	0.00449534
750	0.00406722
762	0.00428128
774	0.0108102
786	0.0122552
798	0.00422776
810	0.00481644
822	0.00444183
834	0.00486996
846	0.00438831
858	0.00465589
870	0.00577973
882	0.00631489
894	0.00524457
906	0.00476292
918	0.00513754
930	0.00765279
942	0.0162153
954	0.0334475
966	0.124211
978	0.246655
990	0.226854
1002	0.214653
1014	0.257358
1026	0.153751
1038	0.0362303
1050	0.0178743
1062	0.0105962
1074	0.00995398
1086	0.0102751
1098	0.00899069
1110	0.00476292
1122	0.00642192
1134	0.0166435
1146	0.0285775
1158	0.0187306
1170	0.00813443
1182	0.00792037
1194	0.0093653
1206	0.0170181
1218	0.0733169
1230	0.0832709
1242	0.0278283
1254	0.0242963
1266	0.020229
1278	0.024992
1290	0.0399229
1302	0.0782404
1314	0.0873381
1326	0.0370866
1338	0.0193193
1350	0.0177138
1362	0.0190517
1374	0.0121481
1386	0.00642192
1398	0.00754576
1410	0.00652895
1422	0.0102751
1434	0.00824146
1446	0.00888366
1458	0.0203896
1470	0.0158943
1482	0.0204431
1494	0.0270256
1506	0.169325
1518	0.53516
1530	0.393503
1542	0.386332
1554	0.0476828
1566	0.0109708
1578	0.0125763
1590	0.00893717
1602	0.00733169
1614	0.0050305
1626	0.00615434
1638	0.00920475
1650	0.00818795
1662	0.00984694
1674	0.00925827
1686	0.0127368
1698	0.0102216
1710	0.00422776
1722	0.00476292
1734	0.0124692
1746	0.0130579
1758	0.0156267
1770	0.0128974
1782	0.00866959
1794	0.0104891
1806	0.00572621
1818	0.0036926
1830	0.00497699
1842	0.00326448
1854	0.00315744
1866	0.00310393
1878	0.00305041
1890	0.00305041
1902	0.00305041
1914	0.00305041
1926	0.00305041
1938	0.00272932
1950	0.0029969
1962	0.00246174
1974	0.00246174
1986	0.00262228
1998	0.00246174
2010	0.00240822
2022	0.00240822
2034	0.00240822
2046	0.0023547
2058	0.00283635
2070	0.00396018
2082	0.00385315
2094	0.00396018
2106	0.00278283
2118	0.00283635
2130	0.00331799
2142	0.00326448
2154	0.00278283
2166	0.00278283
2178	0.00278283
2190	0.00224767
2202	0.00224767
2214	0.00251525
2226	0.00256877
2238	0.00262228
2250	0.0026758
2262	0.00262228
2274	0.00262228
2286	0.00208712
2298	0.00160548
2310	0.00112384
2322	0.000160548
2334	0.000160548
2346	0.000160548
2358	0.000160548
2370	0.000160548
2382	0.0013379
2394	0.00251525
2406	0.00203361
2418	0.00214064
2430	0.00251525
2442	0.00385315
2454	0.00695708
2466	0.00792037
2478	0.00695708
2490	0.00390667
2502	0.00294338
2514	0.00246174
2526	0.00246174
2538	0.00246174
2550	0.00251525
2562	0.00251525
2574	0.00251525
2586	0.00240822
2598	0.00208712
2610	0.00246174
2622	0.00246174
2634	0.00256877
2646	0.00288986
2658	0.00481644
2670	0.00695708
2682	0.00588676
2694	0.00321096
2706	0.00192658
2718	0.00192658
2730	0.00192658
2742	0.00187306
2754	0.00187306
2766	0.00187306
2778	0.00198009
2790	0.00187306
2802	0.00192658
2814	0.00192658
2826	0.00192658
2838	0.00230119
2850	0.00181954
2862	0.00176603
2874	0.00187306
2886	0.00181954
2898	0.00181954
2910	0.00171251
2922	0.00181954
2934	0.00181954
2946	0.00181954
2958	0.0023547
2970	0.00224767
2982	0.00272932
2994	0.00278283
3006	0.00224767
3018	0.00224767
3030	0.00230119
3042	0.00176603
3054	0.0013379
3066	0.00139142
3078	0.00187306
3090	0.00128438
3102	0.001659
3114	0.00080274
3126	0.00155196
3138	0.00144493
3150	0.00117735
3162	0.00176603
3174	0.00123087
3186	0.00181954
3198	0.000856256
3210	0.0013379
3222	0.00123087
3234	0.00107032
3246	0.00144493
3258	0.00176603
3270	0.00117735
3282	0.00112384
3294	0.00224767
3306	0.00219416
3318	0.00128438
3330	0.00214064
3342	0.0013379
3354	0.0010168
3366	0.0010168
3378	0.00117735
3390	0.00160548
3402	0.0010168
3414	0.000749224
3426	0.000749224
3438	0.00112384
3450	0.000642192
3462	0.00080274
3474	0.00112384
3486	0.00107032
3498	0.00155196
3510	0.00112384
3522	0.00123087
3534	0.00080274
3546	0.00160548
3558	0.00053516
3570	0.00321096
3582	0.00155196
3594	0.00246174
3606	0.00524457
3618	0.0499839
3630	0.156053
3642	0.0306647
3654	0.00444183
3666	0.00203361
3678	0.0050305
3690	0.00460238
3702	0.00203361
3714	0.00385315
3726	0.00251525
3738	0.00540512
3750	0.00561918
3762	0.00192658
3774	0.00144493
3786	0.00149845
3798	0.00181954
3810	0.00251525
3822	0.00444183
3834	0.00417425
3846	0.00310393
3858	0.00412073
3870	0.00396018
3882	0.00288986
3894	0.00294338
3906	0.00358557
3918	0.00283635
3930	0.00240822
3942	0.00192658
3954	0
3966	0.000160548
