Infrared Spectrum: 4-Phenylpiperidine
Formula: C 11 H 15 N
CAS: 771-99-3
Origin: Sadtler Research Labs Under US-EPA Contract
1/CM	ABSORBANCE
450	0.0371319
462	0.0389623
474	0.0216167
486	0.0253647
498	0.0320764
510	0.0667676
522	0.161515
534	0.101023
546	0.0204835
558	0.005317
570	0.00200477
582	0.00348656
594	0.0065373
606	0.0160382
618	0.0418387
630	0.0792321
642	0.0346041
654	0.0230985
666	0.0414029
678	0.0789706
690	0.245802
702	0.32887
714	0.232641
726	0.312744
738	0.342032
750	0.332356
762	0.177553
774	0.0666805
786	0.0381778
798	0.0466327
810	0.0472429
822	0.0349528
834	0.0181301
846	0.0252776
858	0.0184788
870	0.00444536
882	0.00688596
894	0.0200477
906	0.0176071
918	0.00566566
930	0.00156895
942	0.00514268
954	0.0131618
966	0.0104597
978	0.00976237
990	0.0145564
1002	0.0365217
1014	0.0846362
1026	0.0670291
1038	0.0244931
1050	0.0161253
1062	0.0356501
1074	0.0395725
1086	0.0256262
1098	0.0300716
1110	0.033994
1122	0.0461098
1134	0.0899532
1146	0.126213
1158	0.0806267
1170	0.0320764
1182	0.0239701
1194	0.0238829
1206	0.0188274
1218	0.0201349
1230	0.0290256
1242	0.0298101
1254	0.0398339
1266	0.0364346
1278	0.0245802
1290	0.0222268
1302	0.0367832
1314	0.092481
1326	0.119589
1338	0.0570924
1350	0.0373062
1362	0.0739151
1374	0.0585742
1386	0.0675521
1398	0.0475044
1410	0.0259749
1422	0.0505551
1434	0.0878613
1446	0.154455
1458	0.122727
1470	0.0746995
1482	0.058487
1494	0.111483
1506	0.0699927
1518	0.0173456
1530	0.0100239
1542	0.00758327
1554	0.00880356
1566	0.0105468
1578	0.0243188
1590	0.0538674
1602	0.101023
1614	0.0440178
1626	0.012203
1638	0.0129874
1650	0.0110698
1662	0.010111
1674	0.00854207
1686	0.0150794
1698	0.0162997
1710	0.0295486
1722	0.0170841
1734	0.0101982
1746	0.00671163
1758	0.00601432
1770	0.00592715
1782	0.0109827
1794	0.0205707
1806	0.0100239
1818	0.00444536
1830	0.00209194
1842	0.00505551
1854	0.00662446
1866	0.0105468
1878	0.0107212
1890	0.00758327
1902	0.00444536
1914	0.00409671
1926	0.00862924
1938	0.0150794
1950	0.0162125
1962	0.00836774
1974	0.00156895
1986	0.0012203
1998	0.00104597
2010	0.000348656
2022	0.000784476
2034	0.0012203
2046	0.00113313
2058	0.000784476
2070	0.00087164
2082	0.000784476
2094	0.000610148
2106	0.000522984
2118	0.00043582
2130	0.000348656
2142	0
2154	0.000261492
2166	0.000610148
2178	0.00130746
2190	0.00191761
2202	0.00165612
2214	0.00200477
2226	0.00235343
2238	0.00261492
2250	0.0033994
2262	0.00296358
2274	0.00392238
2286	0.00679879
2298	0.0128131
2310	0.0195247
2322	0.0188274
2334	0.0151665
2346	0.0195247
2358	0.0155152
2370	0.0163868
2382	0.0128131
2394	0.00322507
2406	0.00400954
2418	0.00409671
2430	0.00418387
2442	0.00479402
2454	0.0055785
2466	0.00645014
2478	0.00618864
2490	0.00610148
2502	0.00566566
2514	0.00522984
2526	0.005317
2538	0.0065373
2550	0.00714745
2562	0.00862924
2574	0.0104597
2586	0.0123773
2598	0.0137719
2610	0.0162997
2622	0.0208322
2634	0.0261492
2646	0.0237086
2658	0.0211809
2670	0.0261492
2682	0.0355629
2694	0.0403569
2706	0.0431462
2718	0.0591844
2730	0.102854
2742	0.131879
2754	0.0879485
2766	0.0842876
2778	0.120722
2790	0.166396
2802	0.259574
2814	0.31257
2826	0.174328
2838	0.119938
2850	0.176943
2862	0.249115
2874	0.226191
2886	0.177902
2898	0.16875
2910	0.280232
2922	0.534925
2934	0.73793
2946	0.87164
2958	0.585829
2970	0.143908
2982	0.0493348
2994	0.0336453
3006	0.0480274
3018	0.0881228
3030	0.19917
3042	0.193417
3054	0.124034
3066	0.21146
3078	0.211896
3090	0.11619
3102	0.0783604
3114	0.0437563
3126	0.0180429
3138	0.00932655
3150	0.00854207
3162	0.0101982
3174	0.00819342
3186	0.00618864
3198	0.00549133
3210	0.00383522
3222	0.0033994
3234	0.00278925
3246	0.00235343
3258	0.00235343
3270	0.00261492
3282	0.0021791
3294	0.00191761
3306	0.00226626
3318	0.00261492
3330	0.00444536
3342	0.00427104
3354	0.00305074
3366	0.0031379
3378	0.00331223
3390	0.00453253
3402	0.00418387
3414	0.00348656
3426	0.00392238
3438	0.00400954
3450	0.00453253
3462	0.00488118
3474	0.00444536
3486	0.00331223
3498	0.00278925
3510	0.00305074
3522	0.00322507
3534	0.00287641
3546	0.00505551
3558	0.00409671
3570	0.00444536
3582	0.00400954
3594	0.0055785
3606	0.00392238
3618	0.00470686
3630	0.0077576
3642	0.0077576
3654	0.00714745
3666	0.00400954
3678	0.00671163
3690	0.00357372
3702	0.00610148
3714	0.00610148
3726	0.00610148
3738	0.00418387
3750	0.00444536
3762	0.00383522
3774	0.00235343
3786	0.00226626
3798	0.00113313
3810	0.0033994
3822	0.00366089
3834	0.00479402
3846	0.00461969
3858	0.00374805
3870	0.00488118
3882	0.00549133
3894	0.00235343
3906	0.00540417
3918	0.00540417
3930	0.0031379
3942	0.00618864
3954	0.00366089
3966	0.00453253
