Infrared Spectrum: Benzene, pentafluoromethyl-
Formula: C 7 H 3 F 5
CAS: 771-56-2
Origin: Sadtler Research Labs Under US-EPA Contract
1/CM	ABSORBANCE
450	0.00158635
462	0.00396588
474	0.00687419
486	0.00753517
498	0.00290831
510	0.00753517
522	0.0104435
534	0.00634541
546	0.0203582
558	0.0196972
570	0.00568443
582	0.00793176
594	0.0215479
606	0.027629
618	0.0112367
630	0.00700639
642	0.00568443
654	0.00475906
666	0.0031727
678	0.00515564
690	0.00251172
702	0.00436247
714	0.00396588
726	0.00542004
738	0.00409808
750	0.00462686
762	0.0033049
774	0.00568443
786	0.00370149
798	0.00502345
810	0.00568443
822	0.00489125
834	0.00687419
846	0.00753517
858	0.0118976
870	0.00925372
882	0.00687419
894	0.00621321
906	0.0103113
918	0.0370149
930	0.352038
942	0.476567
954	0.390375
966	0.335646
978	0.158503
990	0.0486481
1002	0.0393944
1014	0.0518208
1026	0.165906
1038	0.186264
1050	0.0555223
1062	0.058034
1074	0.335381
1086	0.420648
1098	0.196443
1110	0.102584
1122	0.345693
1134	0.324541
1146	0.0233987
1158	0.0193006
1170	0.0101791
1182	0.00898933
1194	0.00819615
1206	0.00727078
1218	0.00634541
1230	0.00687419
1242	0.0101791
1254	0.012162
1266	0.0142772
1278	0.0129552
1290	0.0107079
1302	0.0605458
1314	0.086985
1326	0.0177143
1338	0.0236631
1350	0.0200938
1362	0.0140128
1374	0.0446822
1386	0.0259104
1398	0.0149381
1410	0.0153347
1422	0.0170533
1434	0.0232665
1446	0.0356929
1458	0.0348997
1470	0.0711214
1482	0.185471
1494	0.714123
1506	1.25943
1518	1.3016
1530	1.00707
1542	0.186396
1554	0.0865884
1566	0.0731044
1578	0.0493091
1590	0.0296119
1602	0.014806
1614	0.00766737
1626	0.0103113
1638	0.0174499
1650	0.0573731
1662	0.0573731
1674	0.00594882
1686	0.00158635
1698	0.00237953
1710	0.00515564
1722	0.0122942
1734	0.0130874
1746	0.0216801
1758	0.0138806
1770	0.00383368
1782	0.00290831
1794	0.00105757
1806	0.00118976
1818	0.00145416
1830	0.000132196
1842	0.00158635
1854	0.0034371
1866	0.00158635
1878	0.00198294
1890	0.00145416
1902	0.00171855
1914	0.00198294
1926	0.000925372
1938	0.000925372
1950	0.00118976
1962	0.00171855
1974	0.000925372
1986	0.00158635
1998	0.00118976
2010	0.00105757
2022	0.00145416
2034	0.00251172
2046	0.00436247
2058	0.00740298
2070	0.00687419
2082	0.00608102
2094	0.0034371
2106	0.00304051
2118	0.00198294
2130	0.00118976
2142	0.00132196
2154	0.00158635
2166	0.00132196
2178	0.00198294
2190	0.00171855
2202	0.00105757
2214	0.00132196
2226	0.00171855
2238	0.00251172
2250	0.00436247
2262	0.00251172
2274	0.00066098
2286	0.000528784
2298	0.000264392
2310	0.000925372
2322	0.00118976
2334	0.00145416
2346	0.00251172
2358	0.00502345
2370	0.00740298
2382	0.00819615
2394	0.00594882
2406	0.00555223
2418	0.00489125
2430	0.00687419
2442	0.00832835
2454	0.0124264
2466	0.00687419
2478	0.0034371
2490	0.00290831
2502	0.00198294
2514	0.00304051
2526	0.00277612
2538	0.00145416
2550	0.00171855
2562	0.00171855
2574	0.00211514
2586	0.0033049
2598	0.00409808
2610	0.00449466
2622	0.00608102
2634	0.00832835
2646	0.0111045
2658	0.00859274
2670	0.0064776
2682	0.00290831
2694	0.000925372
2706	0.00158635
2718	0.00105757
2730	0.00105757
2742	0.00211514
2754	0.00356929
2766	0.0031727
2778	0.00237953
2790	0.00224733
2802	0.00171855
2814	0.00105757
2826	0.00132196
2838	0.00118976
2850	0.00251172
2862	0.00396588
2874	0.0100469
2886	0.014806
2898	0.0099147
2910	0.00753517
2922	0.0099147
2934	0.0153347
2946	0.0358251
2958	0.0392622
2970	0.0227377
2982	0.0146738
2994	0.00740298
3006	0.00423027
3018	0.00502345
3030	0.00938592
3042	0.0108401
3054	0.006742
3066	0.00806396
3078	0.00753517
3090	0.00396588
3102	0.00224733
3114	0.00185074
3126	0.00118976
3138	0.00145416
3150	0.00185074
3162	0.00145416
3174	0.00145416
3186	0.00132196
3198	0.000793176
3210	0.00158635
3222	0.00066098
3234	0.00185074
3246	0.000925372
3258	0.00105757
3270	0.000396588
3282	0.00185074
3294	0.00132196
3306	0.00145416
3318	0.000925372
3330	0.00198294
3342	0.00198294
3354	0.00105757
3366	0.00211514
3378	0.000132196
3390	0.00118976
3402	0.00304051
3414	0.000528784
3426	0.00158635
3438	0.00264392
3450	0.00198294
3462	0.000396588
3474	0.00198294
3486	0.00277612
3498	0.00356929
3510	0.00224733
3522	0.00171855
3534	0.00158635
3546	0.00264392
3558	0.00277612
3570	0.00132196
3582	0.0031727
3594	0.00489125
3606	0.000793176
3618	0.00396588
3630	0.0033049
3642	0.00185074
3654	0.0034371
3666	0.00211514
3678	0.00211514
3690	0.00304051
3702	0.00489125
3714	0.00436247
3726	0.00370149
3738	0.00581662
3750	0.00515564
3762	0.00105757
3774	0.00198294
3786	0.00621321
3798	0.0034371
3810	0.00370149
3822	0.00158635
3834	0.00396588
3846	0.0033049
3858	0
3870	0.00555223
3882	0.00449466
3894	0.006742
3906	0.006742
3918	0.00370149
3930	0.00608102
3942	0.00118976
3954	0.00753517
3966	0.00383368
