Infrared Spectrum: Benzenethiol, pentafluoro-
Formula: C 6 H F 5 S
CAS: 771-62-0
Origin: Sadtler Research Labs Under US-EPA Contract
1/CM	ABSORBANCE
450	0.00203686
462	0.00221397
474	0.0034538
486	0.00575634
498	0.00274533
510	0.0034538
522	0.00433939
534	0.00469363
546	0.00292245
558	0.00283389
570	0.00177118
582	0.00212542
594	0.00327668
606	0.00301101
618	0.00407371
630	0.00478219
642	0.00185974
654	0.00212542
666	0.00239109
678	0.00177118
690	0.00221397
702	0.00309957
714	0.00371948
726	0.00469363
738	0.00504786
750	0.00451651
762	0.00327668
774	0.00309957
786	0.00327668
798	0.00283389
810	0.00478219
822	0.0069076
834	0.0069076
846	0.0123983
858	0.10078
870	0.194033
882	0.0235567
894	0.0131067
906	0.0169148
918	0.0936069
930	0.0955552
942	0.0224054
954	0.0191287
966	0.0304643
978	0.0533125
990	0.0871421
1002	0.0506557
1014	0.116898
1026	0.221043
1038	0.0691646
1050	0.015055
1062	0.017269
1074	0.0187745
1086	0.102994
1098	0.205191
1110	0.025505
1122	0.00708472
1134	0.00903302
1146	0.0100072
1158	0.00850166
1170	0.00708472
1182	0.00673048
1194	0.00602201
1206	0.00442795
1218	0.00398515
1230	0.0038966
1242	0.00637625
1254	0.00637625
1266	0.00549066
1278	0.0054021
1290	0.00797031
1302	0.00921014
1314	0.00602201
1326	0.00832455
1338	0.0139923
1350	0.0092987
1362	0.0165605
1374	0.0127525
1386	0.00814743
1398	0.0117783
1410	0.0103614
1422	0.00859022
1434	0.00912158
1446	0.0117783
1458	0.0137266
1470	0.0296673
1482	0.157635
1494	0.779319
1506	0.735482
1518	0.555176
1530	0.123451
1542	0.0534011
1554	0.0162949
1566	0.0113356
1578	0.00850166
1590	0.00752752
1602	0.0100957
1614	0.012044
1626	0.0201029
1638	0.026302
1650	0.0123097
1662	0.00416227
1674	0.00743896
1686	0.00637625
1698	0.00513642
1710	0.00469363
1722	0.00664192
1734	0.00938725
1746	0.00637625
1758	0.00487075
1770	0.0034538
1782	0.00265677
1794	0.00239109
1806	0.00230253
1818	0.00256821
1830	0.00265677
1842	0.00212542
1854	0.00159406
1866	0.0019483
1878	0.00177118
1890	0.00265677
1902	0.00212542
1914	0.00168262
1926	0.00159406
1938	0.00141694
1950	0.00141694
1962	0.00141694
1974	0.00141694
1986	0.00132839
1998	0.00256821
2010	0.00371948
2022	0.0034538
2034	0.00168262
2046	0.00132839
2058	0.000797031
2070	0.00132839
2082	0.00141694
2094	0.00132839
2106	0.00132839
2118	0.00141694
2130	0.00123983
2142	0.00141694
2154	0.00123983
2166	0.00123983
2178	0.00132839
2190	0.00123983
2202	0.00132839
2214	0.0015055
2226	0.00168262
2238	0.00132839
2250	0.00123983
2262	0.000974149
2274	0.00123983
2286	0.0015055
2298	0.00132839
2310	0.00106271
2322	0.00230253
2334	0.00115127
2346	0.00088559
2358	0.00309957
2370	0
2382	0.000619913
2394	0.00309957
2406	0.00212542
2418	0.00212542
2430	0.00239109
2442	0.00363092
2454	0.00221397
2466	0.00123983
2478	0.00123983
2490	0.00115127
2502	0.00123983
2514	0.00123983
2526	0.00123983
2538	0.0015055
2550	0.00132839
2562	0.00177118
2574	0.00177118
2586	0.00274533
2598	0.00646481
2610	0.00752752
2622	0.00460507
2634	0.00212542
2646	0.00283389
2658	0.00283389
2670	0.00230253
2682	0.000797031
2694	0.000442795
2706	0.000619913
2718	0.000442795
2730	0.00132839
2742	0.00088559
2754	0.00115127
2766	0.00141694
2778	0.00132839
2790	0.00088559
2802	0.00132839
2814	0.00123983
2826	0.00132839
2838	0.00088559
2850	0.00115127
2862	0.00123983
2874	0.00132839
2886	0.00177118
2898	0.00230253
2910	0.00318812
2922	0.00354236
2934	0.0034538
2946	0.00283389
2958	0.00177118
2970	0.00123983
2982	0.00159406
2994	0.00177118
3006	0.00177118
3018	0.00141694
3030	0.00177118
3042	0.00132839
3054	0.00088559
3066	0.000797031
3078	0.00132839
3090	0.00132839
3102	0.00141694
3114	0.00132839
3126	0.0015055
3138	0.0015055
3150	0.00141694
3162	0.000974149
3174	0.000974149
3186	0.0015055
3198	0.000619913
3210	0.000974149
3222	0.0015055
3234	0.0015055
3246	0.00115127
3258	0.00159406
3270	0.00230253
3282	0.00123983
3294	0.00141694
3306	0.00177118
3318	0.00168262
3330	0.00177118
3342	0.00177118
3354	0.00168262
3366	0.00177118
3378	0.00168262
3390	0.00177118
3402	0.0015055
3414	0.00177118
3426	0.00230253
3438	0.00168262
3450	0.0015055
3462	0.00185974
3474	0.00185974
3486	0.0015055
3498	0.00239109
3510	0.00159406
3522	0.00203686
3534	0.00239109
3546	0.00132839
3558	0.000974149
3570	0.00123983
3582	0.000974149
3594	0.0015055
3606	0.00106271
3618	0.000797031
3630	0.000974149
3642	0.00132839
3654	0.00106271
3666	0.00106271
3678	0.000708472
3690	0.00106271
3702	0.00115127
3714	0.000708472
3726	0.00123983
3738	0.000708472
3750	0
3762	0.000531354
3774	0.000619913
3786	0.000442795
3798	0.00123983
3810	0.00115127
3822	0.000619913
3834	0.00088559
3846	0.000177118
3858	0.000531354
3870	0.000442795
3882	0.00123983
3894	0.000974149
3906	0.00088559
3918	0.000974149
3930	0.00123983
3942	0.000974149
3954	0.0015055
3966	0.0019483
