Infrared Spectrum: 1,4-Benzenediol, 2,3,5,6-tetrafluoro-
Formula: C 6 H 2 F 4 O 2
CAS: 771-63-1
Origin: Sadtler Research Labs Under US-EPA Contract
1/CM	ABSORBANCE
450	0.00366206
462	0.00874826
474	0.0108845
486	0.0103758
498	0.0118
510	0.0115965
522	0.0139362
534	0.00793447
546	0.0050862
558	0.00712068
570	0.00712068
582	0.00966378
594	0.00895171
606	0.00874826
618	0.00996895
630	0.00732413
642	0.00528965
654	0.00417068
666	0.00406896
678	0.00498448
690	0.00539137
702	0.00539137
714	0.00539137
726	0.00640861
738	0.0054931
750	0.00559482
762	0.0185138
774	0.0392655
786	0.0196327
798	0.00732413
810	0.00681551
822	0.00956206
834	0.00996895
846	0.00630689
858	0.00895171
870	0.0114948
882	0.00996895
894	0.00946033
906	0.0151569
918	0.0376379
930	0.0847361
942	0.213926
954	0.49153
966	0.415034
978	0.303239
990	0.514622
1002	0.588372
1014	0.581251
1026	0.301205
1038	0.0871775
1050	0.0426224
1062	0.0349931
1074	0.0286862
1086	0.0245155
1098	0.0156655
1110	0.0134276
1122	0.0304155
1134	0.0317379
1146	0.0317379
1158	0.0239051
1170	0.0219724
1182	0.0321448
1194	0.100096
1206	0.346675
1218	0.325822
1230	0.155333
1242	0.0985706
1254	0.106403
1266	0.337927
1278	0.340369
1290	0.11271
1302	0.125833
1314	0.193784
1326	0.295508
1338	0.232948
1350	0.0868723
1362	0.0512689
1374	0.0290931
1386	0.0174965
1398	0.0129189
1410	0.013631
1422	0.0112914
1434	0.0124103
1446	0.0209551
1458	0.0363155
1470	0.0480137
1482	0.0724275
1494	0.336808
1506	0.916228
1518	0.854583
1530	0.714815
1542	0.609734
1554	0.207822
1566	0.0335689
1578	0.0231931
1590	0.018412
1602	0.0140379
1614	0.0103758
1626	0.00813792
1638	0.0124103
1650	0.021362
1662	0.065612
1674	0.0498448
1686	0.0114948
1698	0.0236
1710	0.0712068
1722	0.0506586
1734	0.0239051
1746	0.0169879
1758	0.0150552
1770	0.0110879
1782	0.010681
1794	0.00701896
1806	0.00773102
1818	0.00417068
1830	0.00101724
1842	0.00274655
1854	0.0025431
1866	0.0021362
1878	0.00325517
1890	0.0021362
1902	0.00244138
1914	0.00172931
1926	0.00183103
1938	0.00183103
1950	0.00193276
1962	0.00183103
1974	0.00203448
1986	0.00203448
1998	0.00142414
2010	0.00233965
2022	0.00152586
2034	0.00223793
2046	0.00284827
2058	0.00457758
2070	0.00671378
2082	0.00732413
2094	0.00742585
2106	0.00661206
2118	0.00437413
2130	0.00427241
2142	0.00488275
2154	0.00406896
2166	0.00335689
2178	0.00233965
2190	0.00203448
2202	0.0021362
2214	0.00284827
2226	0.00345862
2238	0.00335689
2250	0.00345862
2262	0.00376379
2274	0.00417068
2286	0.00386551
2298	0.00335689
2310	0.00366206
2322	0.00651034
2334	0.00671378
2346	0.00671378
2358	0.00559482
2370	0.00345862
2382	0.00376379
2394	0.00345862
2406	0.0054931
2418	0.00905344
2430	0.0112914
2442	0.0115965
2454	0.0146483
2466	0.0128172
2478	0.00966378
2490	0.0076293
2502	0.00437413
2514	0.00335689
2526	0.00366206
2538	0.00356034
2550	0.00295
2562	0.00335689
2574	0.00345862
2586	0.00437413
2598	0.00518792
2610	0.00498448
2622	0.00528965
2634	0.00742585
2646	0.0111896
2658	0.0132241
2670	0.00935861
2682	0.0054931
2694	0.00396724
2706	0.00203448
2718	0.00142414
2730	0.00132241
2742	0.00152586
2754	0.00122069
2766	0.00111896
2778	0.00132241
2790	0.00152586
2802	0.00223793
2814	0.00233965
2826	0.00233965
2838	0.00223793
2850	0.0021362
2862	0.00274655
2874	0.00233965
2886	0.0021362
2898	0.00203448
2910	0.00274655
2922	0.00325517
2934	0.0054931
2946	0.0046793
2958	0.00478103
2970	0.00640861
2982	0.00589999
2994	0.0046793
3006	0.00356034
3018	0.00295
3030	0.00244138
3042	0.00244138
3054	0.00132241
3066	0.00122069
3078	0.00101724
3090	0.00142414
3102	0.00142414
3114	0.00172931
3126	0.00152586
3138	0.0021362
3150	0.0021362
3162	0.00172931
3174	0.00193276
3186	0.00152586
3198	0.00172931
3210	0.00162758
3222	0.00132241
3234	0.00162758
3246	0.00101724
3258	0.000813792
3270	0.00152586
3282	0.00152586
3294	0.00264482
3306	0.00589999
3318	0.00630689
3330	0.0046793
3342	0.00498448
3354	0.00701896
3366	0.00620516
3378	0.00478103
3390	0.00528965
3402	0.00620516
3414	0.0046793
3426	0.00396724
3438	0.00325517
3450	0.00233965
3462	0.0025431
3474	0.00203448
3486	0.00233965
3498	0.00193276
3510	0.0021362
3522	0.00264482
3534	0.00142414
3546	0.00559482
3558	0.00478103
3570	0.00966378
3582	0.00396724
3594	0.0121052
3606	0.0296017
3618	0.2124
3630	0.77534
3642	0.26967
3654	0.0218707
3666	0.00569654
3678	0.0105793
3690	0.00874826
3702	0.00335689
3714	0.00732413
3726	0.00793447
3738	0.00854482
3750	0.00681551
3762	0.00233965
3774	0.000305172
3786	0.0021362
3798	0.00396724
3810	0
3822	0.00651034
3834	0.00895171
3846	0.00417068
3858	0.0080362
3870	0.00630689
3882	0.00732413
3894	0.00630689
3906	0.0111896
3918	0.00884999
3930	0.00579827
3942	0.00488275
3954	0.00864654
3966	0.00142414
