Infrared Spectrum: N,N-Diethylbenzylamine
Formula: C 11 H 17 N
CAS: 772-54-3
Origin: Sadtler Research Labs Under US-EPA Contract
1/CM	ABSORBANCE
450	0.0253453
462	0.0310117
474	0.0189899
486	0.0141658
498	0.0174584
510	0.0160035
522	0.019143
534	0.0201384
546	0.0076572
558	0.013247
570	0.0133235
582	0.0172287
594	0.022895
606	0.0376734
618	0.0283316
630	0.0187601
642	0.0134767
654	0.0248093
666	0.0296334
678	0.0397409
690	0.144338
702	0.212411
714	0.119069
726	0.279794
738	0.198092
750	0.0658519
762	0.0676896
774	0.094643
786	0.0793286
798	0.0412723
810	0.0467855
822	0.043646
834	0.0265705
846	0.0200619
858	0.0193727
870	0.0178413
882	0.0216699
894	0.033462
906	0.0534473
918	0.036678
930	0.0238139
942	0.0224356
954	0.0296334
966	0.0486998
978	0.061717
990	0.0621765
1002	0.0494655
1014	0.0445649
1026	0.116619
1038	0.0941836
1050	0.114781
1062	0.203375
1074	0.198857
1086	0.145717
1098	0.107813
1110	0.0932647
1122	0.0858372
1134	0.0544427
1146	0.0496187
1158	0.0898955
1170	0.135915
1182	0.0931116
1194	0.100386
1206	0.187372
1218	0.0947961
1230	0.0492358
1242	0.0549787
1254	0.0675365
1266	0.0562804
1278	0.0669239
1290	0.109575
1302	0.111948
1314	0.0972464
1326	0.0926521
1338	0.0992373
1350	0.135456
1362	0.174278
1374	0.214172
1386	0.22091
1398	0.11884
1410	0.0470152
1422	0.0382094
1434	0.0451009
1446	0.0961744
1458	0.149775
1470	0.117385
1482	0.0809366
1494	0.106435
1506	0.0541364
1518	0.0213636
1530	0.0195259
1542	0.0204447
1554	0.0171521
1566	0.019143
1578	0.0201384
1590	0.0285614
1602	0.0466323
1614	0.0308585
1626	0.0160035
1638	0.0150847
1650	0.0143955
1662	0.0131704
1674	0.0130172
1686	0.013247
1698	0.0129407
1710	0.012711
1722	0.0127875
1734	0.0140892
1746	0.0139361
1758	0.0125578
1770	0.0120218
1782	0.0120984
1794	0.0169224
1806	0.0245796
1818	0.0147784
1830	0.0112561
1842	0.0102606
1854	0.0111795
1866	0.0157738
1878	0.0172287
1890	0.0131704
1902	0.00849949
1914	0.00750406
1926	0.00888235
1938	0.0176881
1950	0.0210573
1962	0.0150081
1974	0.00834635
1986	0.00788692
1998	0.00666176
2010	0.0062789
2022	0.00551318
2034	0.00451775
2046	0.00513032
2058	0.00467089
2070	0.00421146
2082	0.00543661
2094	0.00620233
2106	0.00536004
2118	0.00536004
2130	0.0052069
2142	0.00505375
2154	0.00528347
2166	0.00536004
2178	0.0062789
2190	0.00673834
2202	0.00589604
2214	0.00467089
2226	0.00505375
2238	0.00497718
2250	0.00497718
2262	0.00505375
2274	0.00490061
2286	0.00490061
2298	0.0043646
2310	0.00551318
2322	0.00459432
2334	0.00451775
2346	0.00183773
2358	0.00359888
2370	0.00183773
2382	0.00298631
2394	0.00398174
2406	0.00459432
2418	0.00451775
2430	0.00451775
2442	0.00444118
2454	0.00352231
2466	0.00359888
2478	0.00275659
2490	0.00313945
2502	0.00344574
2514	0.00352231
2526	0.0057429
2538	0.00589604
2550	0.00742748
2562	0.00918864
2574	0.0111795
2586	0.0115624
2598	0.0117921
2610	0.0133235
2622	0.0157738
2634	0.0173818
2646	0.0194493
2658	0.0252688
2670	0.0272596
2682	0.0294036
2694	0.0384391
2706	0.0533707
2718	0.0673834
2730	0.0708291
2742	0.0734325
2754	0.0896658
2766	0.114705
2778	0.143802
2790	0.25598
2802	0.419768
2814	0.422907
2826	0.303455
2838	0.190971
2850	0.125272
2862	0.106435
2874	0.151689
2886	0.223667
2898	0.188597
2910	0.194952
2922	0.223743
2934	0.325584
2946	0.387761
2958	0.269993
2970	0.535162
2982	0.691062
2994	0.205136
3006	0.0829275
3018	0.0839995
3030	0.178413
3042	0.175962
3054	0.0951024
3066	0.166314
3078	0.186223
3090	0.10789
3102	0.0642439
3114	0.0369843
3126	0.0179944
3138	0.0109498
3150	0.0107967
3162	0.0104904
3174	0.0120218
3186	0.00934178
3198	0.00719777
3210	0.00536004
3222	0.00413489
3234	0.0043646
3246	0.00558976
3258	0.00359888
3270	0.00513032
3282	0.00566633
3294	0.0038286
3306	0.00336917
3318	0.0024503
3330	0.00459432
3342	0.00398174
3354	0.00336917
3366	0.00604919
3378	0.00367546
3390	0.00298631
3402	0.0024503
3414	0.00536004
3426	0.00268002
3438	0.00467089
3450	0.00551318
3462	0.00398174
3474	0.00490061
3486	0.00451775
3498	0.00505375
3510	0.00558976
3522	0.00451775
3534	0.00428803
3546	0.00505375
3558	0.00413489
3570	0.0043646
3582	0.00451775
3594	0.00405832
3606	0.00597262
3618	0.00650862
3630	0.00804006
3642	0.00658519
3654	0.00704462
3666	0.00727434
3678	0.00696805
3690	0.00551318
3702	0.00620233
3714	0.00604919
3726	0.00888235
3738	0.00558976
3750	0.00413489
3762	0.00597262
3774	0.00558976
3786	0.00597262
3798	0.00597262
3810	0.0052069
3822	0.00505375
3834	0.00528347
3846	0.00696805
3858	0.00597262
3870	0.00811663
3882	0.00673834
3894	0.00704462
3906	0.00681491
3918	0.00696805
3930	0.00972464
3942	0.00811663
3954	0.00650862
3966	0.0090355
