Infrared Spectrum: 1-Naphthaleneethanol
Formula: C 12 H 12 O
CAS: 773-99-9
Origin: Sadtler Research Labs Under US-EPA Contract
1/CM	ABSORBANCE
450	0.022557
462	0.00655938
474	0.00491954
486	0.0148679
498	0.00991195
510	0.0107137
522	0.00783482
534	0.00739752
546	0.00794414
558	0.00645006
570	0.00349834
582	0.00575768
594	0.00907381
606	0.00943822
618	0.00295172
630	0.00200425
642	0.00440936
654	0.00215002
666	0.000327969
678	0.00102035
690	0.00593988
702	0.00513818
714	0.00849075
726	0.0213544
738	0.0131916
750	0.0093289
762	0.105096
774	0.36441
786	0.255269
798	0.143213
810	0.0292621
822	0.00983907
834	0.0127179
846	0.0158154
858	0.0134467
870	0.0105314
882	0.00972975
894	0.00911025
906	0.00892804
918	0.0074704
930	0.0134467
942	0.0170179
954	0.0161069
966	0.0178925
978	0.0206256
990	0.0340723
1002	0.0496691
1014	0.0887703
1026	0.177613
1038	0.290544
1050	0.231619
1062	0.130459
1074	0.0757973
1086	0.0466809
1098	0.0238689
1110	0.0191315
1122	0.0184391
1134	0.020079
1146	0.0204434
1158	0.0228485
1170	0.0307926
1182	0.0279867
1194	0.0286062
1206	0.0313757
1218	0.0283511
1230	0.021646
1242	0.0218282
1254	0.0257638
1266	0.029663
1278	0.0256909
1290	0.0215731
1302	0.0218282
1314	0.0228121
1326	0.0254723
1338	0.0281325
1350	0.0307198
1362	0.0309748
1374	0.0520742
1386	0.0809719
1398	0.0755422
1410	0.0340723
1422	0.020079
1434	0.020407
1446	0.0247434
1458	0.0247434
1470	0.0196053
1482	0.0190222
1494	0.0170544
1506	0.0365139
1518	0.0350198
1530	0.00911025
1542	0.00422716
1554	0.00276952
1566	0.0044458
1578	0.0123171
1590	0.0234316
1602	0.0240875
1614	0.00532039
1626	0.00532039
1638	0.0042636
1650	0.00324325
1662	0.00440936
1674	0.00838143
1686	0.0111874
1698	0.00830855
1710	0.00539327
1722	0.00812634
1734	0.0102399
1746	0.0118069
1758	0.00768905
1770	0.00528394
1782	0.00481021
1794	0.0107137
1806	0.0102764
1818	0.00652294
1830	0.00564835
1842	0.0042636
1854	0.00641362
1866	0.00732464
1878	0.00291528
1890	0.00393563
1902	0.00761617
1914	0.0150501
1926	0.0148315
1938	0.0122806
1950	0.00677803
1962	0.00109323
1974	0.000473733
1986	7.2882e-05
1998	0.000437292
2010	0.000655938
2022	0.000874584
2034	0.0016034
2046	0.00251443
2058	0.00280596
2070	0.00215002
2082	0.00178561
2094	0.00127543
2106	0.000911025
2118	0.000911025
2130	0.000655938
2142	0.000400851
2154	0.000619497
2166	0.000510174
2178	0.00036441
2190	0.000291528
2202	0.000255087
2214	0.000145764
2226	0.000473733
2238	0.000765261
2250	0.000692379
2262	0.000874584
2274	0.000947466
2286	0.00182205
2298	0.00207714
2310	0.00313393
2322	0.00360766
2334	0.00430004
2346	0.00451868
2358	0.00320681
2370	0.00236866
2382	0.00258731
2394	0.000983907
2406	0.00215002
2418	0.00218646
2430	0.00178561
2442	0.00134832
2454	0.00127543
2466	0.00127543
2478	0.000911025
2490	0.00127543
2502	0.000983907
2514	0.00112967
2526	0.00116611
2538	0.00131188
2550	0.000874584
2562	0.000838143
2574	0.00109323
2586	0.000947466
2598	0.000983907
2610	0.00134832
2622	0.00185849
2634	0.00229578
2646	0.00273307
2658	0.00273307
2670	0.0028424
2682	0.00280596
2694	0.00331613
2706	0.00404495
2718	0.00481021
2730	0.00557547
2742	0.00579412
2754	0.00637717
2766	0.00645006
2778	0.00721532
2790	0.00776193
2802	0.00900093
2814	0.0103857
2826	0.0125721
2838	0.0157061
2850	0.0223019
2862	0.0365503
2874	0.0733193
2886	0.114571
2898	0.0859643
2910	0.0676345
2922	0.0817372
2934	0.117048
2946	0.13567
2958	0.154583
2970	0.109104
2982	0.0501064
2994	0.0295172
3006	0.0381537
3018	0.0475191
3030	0.0516005
3042	0.0987551
3054	0.158555
3066	0.195178
3078	0.147149
3090	0.0837414
3102	0.0479928
3114	0.0169815
3126	0.00484665
3138	0.00295172
3150	0.00225934
3162	0.0028424
3174	0.00236866
3186	0.00262375
3198	0.00171273
3210	0.0016034
3222	0.00207714
3234	0.00182205
3246	0.000911025
3258	0.000182205
3270	0.000874584
3282	0.000473733
3294	0.000619497
3306	0.00102035
3318	0.000874584
3330	0.00131188
3342	0.0014212
3354	0.00153052
3366	0.00156696
3378	0.000510174
3390	0.00156696
3402	0.00200425
3414	0.00182205
3426	0.00109323
3438	0.00102035
3450	0.00178561
3462	0.00153052
3474	0.00112967
3486	0.0016034
3498	0.00207714
3510	0.00196781
3522	0.00149408
3534	0.000838143
3546	0.00211358
3558	0.00324325
3570	0.00247799
3582	0.00255087
3594	0.00422716
3606	0.00517462
3618	0.0106408
3630	0.0267841
3642	0.0205527
3654	0.0281689
3666	0.045697
3678	0.0303918
3690	0.0102764
3702	0.00619497
3714	0.00502886
3726	0.00451868
3738	0.00138476
3750	0.00488309
3762	0.00320681
3774	0.00225934
3786	0.00313393
3798	0.00276952
3810	0.00353478
3822	0.00306104
3834	0.0022229
3846	0.0044458
3858	0.00287884
3870	0.00317037
3882	0.00244155
3894	0.00189493
3906	0.00273307
3918	0.000655938
3930	0.00156696
3942	0.00236866
3954	0.00225934
3966	0.0014212
