Infrared Spectrum: 1,3-Benzoxathiol-2-one, 5-hydroxy
Formula: C 7 H 4 O 3 S
CAS: 7735-56-0
Origin: Sadtler Research Labs Under US-EPA Contract
1/CM	ABSORBANCE
450	0.00856962
462	0.0124736
474	0.0111405
486	0.00799831
498	0.0133305
510	0.00876006
522	0.0207575
534	0.0117118
546	0.0110453
558	0.00571308
570	0.0167584
582	0.0228523
594	0.0202814
606	0.0296128
618	0.0150444
630	0.0119022
642	0.023138
654	0.020948
666	0.0195197
678	0.00752222
690	0.00618917
702	0.00856962
714	0.0152349
726	0.0109501
738	0.00495134
750	0.00123783
762	0.00837918
774	0.00866484
786	0.0226619
798	0.0416103
810	0.0486564
822	0.0337072
834	0.0603682
846	0.14635
858	0.11807
870	0.022281
882	0.0105692
894	0.0110453
906	0.0174249
918	0.0129496
930	0.00904571
942	0.0110453
954	0.0158062
966	0.0233284
978	0.0358972
990	0.0996932
1002	0.203862
1014	0.163775
1026	0.0577973
1038	0.0225667
1050	0.0219954
1062	0.0634152
1074	0.136828
1086	0.0709374
1098	0.0312315
1110	0.0325646
1122	0.0394203
1134	0.035802
1146	0.0295176
1158	0.0605586
1170	0.164537
1182	0.121498
1194	0.0583686
1206	0.0836014
1218	0.134638
1230	0.0933136
1242	0.027518
1254	0.0352307
1266	0.0926471
1278	0.0928375
1290	0.0431338
1302	0.0277084
1314	0.0313267
1326	0.0158062
1338	0.000571308
1350	0.00352307
1362	0.00914093
1374	0.00809353
1386	0.00666526
1398	0.00637961
1410	0.0107596
1422	0.0265658
1434	0.0601778
1446	0.0750318
1458	0.0457046
1470	0.133305
1482	0.274418
1494	0.0796022
1506	0.0172345
1518	0.00542743
1530	0.00571308
1542	0.00485612
1554	0.0095218
1566	0.0112357
1578	0.0257089
1590	0.0620821
1602	0.0727466
1614	0.0458951
1626	0.0166631
1638	0.0174249
1650	0.0214241
1662	0.0254232
1674	0.0218049
1686	0.0152349
1698	0.0119022
1710	0.0216145
1722	0.0402772
1734	0.0743653
1746	0.0878862
1758	0.131401
1770	0.114452
1782	0.171773
1794	0.817542
1806	0.741653
1818	0.0703661
1830	0.026661
1842	0.0133305
1854	0.0127592
1866	0.00809353
1878	0.00809353
1890	0.00828397
1902	0.00599873
1914	0.00571308
1926	0.00542743
1938	0.00380872
1950	0.00352307
1962	0.00485612
1974	0.00809353
1986	0.0137114
1998	0.0199006
2010	0.017901
2022	0.00828397
2034	0.00380872
2046	0.00314219
2058	0.00399916
2070	0.00714135
2082	0.007427
2094	0.00438003
2106	0.00342785
2118	0.0026661
2130	0.00276132
2142	0.0026661
2154	0.00199958
2166	0.00123783
2178	0.000856962
2190	0.00152349
2202	0.0010474
2214	0.00095218
2226	0.00114262
2238	0.000761744
2250	0.000761744
2262	0.0010474
2274	0.00123783
2286	0.000666526
2298	0.00095218
2310	0.00199958
2322	0.00247567
2334	0.0026661
2346	0.00447525
2358	0.00361828
2370	0.00238045
2382	0.00257089
2394	0.00285654
2406	0.00219001
2418	0.00095218
2430	0.00123783
2442	0.0020948
2454	0.00247567
2466	0.00199958
2478	0.00238045
2490	0.00199958
2502	0.0010474
2514	0.00142827
2526	0.00152349
2538	0.00161871
2550	0.00180914
2562	0.00123783
2574	0.0010474
2586	0.00123783
2598	0.00123783
2610	0.00161871
2622	0.00180914
2634	0.0010474
2646	0.00123783
2658	0.00180914
2670	0.00190436
2682	0.00095218
2694	0.00171392
2706	0.00152349
2718	0.00161871
2730	0.00152349
2742	0.00152349
2754	0.00238045
2766	0.00219001
2778	0.00171392
2790	0.0020948
2802	0.00161871
2814	0.00180914
2826	0.00133305
2838	0.000761744
2850	0.00123783
2862	0.00161871
2874	0.00180914
2886	0.00152349
2898	0.00180914
2910	0.00190436
2922	0.00238045
2934	0.00257089
2946	0.00219001
2958	0.00161871
2970	0.00171392
2982	0.00199958
2994	0.00285654
3006	0.00295176
3018	0.0047609
3030	0.00676048
3042	0.00895049
3054	0.00723657
3066	0.00523699
3078	0.00599873
3090	0.00637961
3102	0.00561786
3114	0.00514177
3126	0.00447525
3138	0.00390394
3150	0.00447525
3162	0.00361828
3174	0.00380872
3186	0.00399916
3198	0.00390394
3210	0.00418959
3222	0.00447525
3234	0.00380872
3246	0.00457046
3258	0.00466568
3270	0.00447525
3282	0.00504655
3294	0.00533221
3306	0.00542743
3318	0.00552264
3330	0.00495134
3342	0.00533221
3354	0.00571308
3366	0.00618917
3378	0.00618917
3390	0.00695091
3402	0.00704613
3414	0.0068557
3426	0.00761744
3438	0.00618917
3450	0.00599873
3462	0.00609395
3474	0.00542743
3486	0.0047609
3498	0.00666526
3510	0.00495134
3522	0.00418959
3534	0.00361828
3546	0.00399916
3558	0.00485612
3570	0.00914093
3582	0.0101883
3594	0.00247567
3606	0.00180914
3618	0.00219001
3630	0.00542743
3642	0.0299937
3654	0.100741
3666	0.0496086
3678	0.00323741
3690	0.00114262
3702	0.00180914
3714	0.00152349
3726	0
3738	0.0020948
3750	0.00285654
3762	0.00095218
3774	0.000571308
3786	0.0020948
3798	0.00219001
3810	0.00190436
3822	0.00199958
3834	0.00142827
3846	0.00219001
3858	0.0026661
3870	0.00228523
3882	0.00219001
3894	0.00285654
3906	0.00171392
3918	0.00304698
3930	0.0026661
3942	0.00361828
3954	0.00180914
3966	0.00285654
