Infrared Spectrum: 1,3-Benzoxathiol-2-one, 4,6-dimethyl-5-hydroxy-,
Formula: C 9 H 8 O 3 S
CAS: 7735-65-1
Origin: Sadtler Research Labs Under US-EPA Contract
1/CM	ABSORBANCE
450	0.0107877
462	0.0120758
474	0.0111098
486	0.0014491
498	0.00724549
510	0.0117538
522	0.014652
534	0.0209314
546	0.00386426
558	0.00370325
570	0.00869459
582	0.0159401
594	0.00386426
606	0.00418629
618	0.00611842
630	0.014491
642	0.0447611
654	0.0553878
666	0.0103047
678	0.00193213
690	0.00386426
702	0.000805055
714	0.00450831
726	0.0122368
738	0.0254397
750	0.014169
762	0.00466932
774	0.00483033
786	0.00692347
798	0.00949965
810	0.014491
822	0.0690737
834	0.158435
846	0.0639214
858	0.058769
870	0.0154571
882	0.0088556
894	0.00917763
906	0.0103047
918	0.0136859
930	0.0161011
942	0.0283379
954	0.0499134
966	0.0418629
978	0.0331683
990	0.0656925
1002	0.205611
1014	0.289337
1026	0.229924
1038	0.151672
1050	0.105945
1062	0.0900051
1074	0.143783
1086	0.10836
1098	0.0325242
1110	0.0238296
1122	0.0207704
1134	0.0170672
1146	0.0201264
1158	0.0408968
1170	0.131385
1182	0.0673026
1194	0.0785734
1206	0.1879
1218	0.217526
1230	0.113191
1242	0.0624723
1254	0.0344564
1266	0.0272109
1278	0.0383206
1290	0.0524896
1302	0.08759
1314	0.0824376
1326	0.0503964
1338	0.0357444
1350	0.0301091
1362	0.0260838
1374	0.0201264
1386	0.0344564
1398	0.029626
1410	0.0516845
1422	0.119148
1434	0.198527
1446	0.183553
1458	0.138308
1470	0.132673
1482	0.0788954
1494	0.0336513
1506	0.0117538
1518	0.00676246
1530	0.00998268
1542	0.00354224
1554	0.0115928
1566	0.015135
1578	0.0177112
1590	0.0273719
1602	0.0281769
1614	0.0256007
1626	0.0199654
1638	0.014974
1650	0.0172282
1662	0.0370325
1674	0.0268888
1686	0.0233466
1698	0.0315582
1710	0.0528116
1722	0.0758362
1734	0.0846918
1746	0.0719719
1758	0.140241
1770	0.131063
1782	0.286761
1794	1.59449
1806	0.617638
1818	0.0661755
1830	0.0225415
1842	0.014813
1854	0.00837257
1866	0.00338123
1878	0.00805055
1890	0.00595741
1902	0.00322022
1914	0.00225415
1926	0.00257618
1938	0.00499134
1950	0.00949965
1962	0.0120758
1974	0.00933864
1986	0.0088556
1998	0.0132029
2010	0.0180332
2022	0.014169
2034	0.0106267
2046	0.00692347
2058	0.00660145
2070	0.00917763
2082	0.0117538
2094	0.00772853
2106	0.0043473
2118	0.00305921
2130	0.00209314
2142	0.00161011
2154	0.00128809
2166	0.00112708
2178	0.00112708
2190	0.000966066
2202	0.000483033
2214	0.000644044
2226	0.000805055
2238	0.00128809
2250	0.00161011
2262	0.00193213
2274	0.000966066
2286	0.00161011
2298	0.0028982
2310	0.00418629
2322	0.00370325
2334	0.00241516
2346	0.00322022
2358	0.00241516
2370	0.00225415
2382	0.00322022
2394	0.00193213
2406	0.0028982
2418	0.00241516
2430	0.00193213
2442	0.00225415
2454	0.0028982
2466	0.00241516
2478	0.00225415
2490	0.00193213
2502	0.0014491
2514	0.00225415
2526	0.00225415
2538	0.00322022
2550	0.00257618
2562	0.00193213
2574	0.00161011
2586	0.0014491
2598	0.00241516
2610	0.00273719
2622	0.00273719
2634	0.00273719
2646	0.00257618
2658	0.00257618
2670	0.00225415
2682	0.00241516
2694	0.00257618
2706	0.00257618
2718	0.00338123
2730	0.00338123
2742	0.00499134
2754	0.00611842
2766	0.00450831
2778	0.00386426
2790	0.0043473
2802	0.00499134
2814	0.00499134
2826	0.00660145
2838	0.00917763
2850	0.0135249
2862	0.0222195
2874	0.0301091
2886	0.0267278
2898	0.0225415
2910	0.029143
2922	0.0462102
2934	0.0521676
2946	0.0413798
2958	0.0244737
2970	0.0217365
2982	0.0223805
2994	0.0204484
3006	0.0132029
3018	0.0114318
3030	0.0119148
3042	0.0119148
3054	0.0103047
3066	0.00837257
3078	0.00756752
3090	0.00531336
3102	0.00402528
3114	0.0028982
3126	0.00338123
3138	0.00273719
3150	0.00305921
3162	0.00257618
3174	0.00273719
3186	0.0028982
3198	0.00273719
3210	0.00338123
3222	0.0028982
3234	0.0028982
3246	0.00354224
3258	0.00370325
3270	0.00418629
3282	0.00370325
3294	0.00418629
3306	0.00418629
3318	0.00499134
3330	0.00499134
3342	0.00483033
3354	0.00627943
3366	0.00676246
3378	0.00724549
3390	0.00772853
3402	0.00837257
3414	0.00821156
3426	0.0088556
3438	0.0088556
3450	0.00933864
3462	0.00853358
3474	0.00966066
3486	0.00788954
3498	0.00740651
3510	0.00676246
3522	0.00724549
3534	0.00724549
3546	0.00499134
3558	0.0088556
3570	0.014491
3582	0.0111098
3594	0.00386426
3606	0.00193213
3618	0.00370325
3630	0.0111098
3642	0.0457271
3654	0.109326
3666	0.0404138
3678	0.0043473
3690	0.000161011
3702	0.000322022
3714	0
3726	0
3738	0
3750	0
3762	0
3774	0
3786	0.000322022
3798	0
3810	0
3822	0
3834	0.000161011
3846	0
3858	0
3870	0
3882	0.000644044
3894	0.000322022
3906	0.000161011
3918	0.000161011
3930	0
3942	0
3954	0
3966	0.000161011
