Infrared Spectrum: Benzeneacetic acid, .alpha.-hydroxy-, ethyl ester
Formula: C 10 H 12 O 3
CAS: 774-40-3
Origin: Sadtler Research Labs Under US-EPA Contract
1/CM	ABSORBANCE
450	0.0145247
462	0.0180922
474	0.0166482
486	0.015629
498	0.0199609
510	0.0349953
522	0.0236133
534	0.0089187
546	0.00118916
558	0.0029729
570	0.00373736
582	0.0144398
594	0.0316826
606	0.0239531
618	0.0278603
630	0.0242079
642	0.0101079
654	0.0114669
666	0.0277754
678	0.0699906
690	0.161811
702	0.160112
714	0.1066
726	0.123673
738	0.12792
750	0.0603923
762	0.0456128
774	0.0394971
786	0.0248025
798	0.012741
810	0.00662532
822	0.0025482
834	0.0004247
846	0.0050964
858	0.0191964
870	0.032617
882	0.00832412
894	0.00416206
906	0.0132506
918	0.0180073
930	0.0260766
942	0.022679
954	0.00866388
966	0.00900364
978	0.0118916
990	0.016988
1002	0.0451881
1014	0.127155
1026	0.228743
1038	0.185594
1050	0.173872
1062	0.250403
1074	0.266457
1086	0.281321
1098	0.305274
1110	0.253971
1122	0.154761
1134	0.096237
1146	0.111017
1158	0.182451
1170	0.330841
1182	0.556612
1194	0.559585
1206	0.564766
1218	0.461904
1230	0.352756
1242	0.394716
1254	0.515161
1266	0.484838
1278	0.37535
1290	0.254905
1302	0.194513
1314	0.132421
1326	0.082137
1338	0.0591182
1350	0.0526628
1362	0.0716894
1374	0.103287
1386	0.0765309
1398	0.0633652
1410	0.0519833
1422	0.0342308
1434	0.0347405
1446	0.0596279
1458	0.0788243
1470	0.0621761
1482	0.0516435
1494	0.0635351
1506	0.0332965
1518	0.0063705
1530	0.00441688
1542	0.00059458
1554	0.0029729
1566	0.0025482
1578	0.00603074
1590	0.0106175
1602	0.0203007
1614	0.00985304
1626	0.00271808
1638	0.0012741
1650	0.00288796
1662	0.00458676
1674	0.00925846
1686	0.0208952
1698	0.0405164
1710	0.0658285
1722	0.0985304
1734	0.279368
1746	0.797077
1758	0.645544
1770	0.276225
1782	0.108808
1794	0.062261
1806	0.0390724
1818	0.0189416
1830	0.0097681
1842	0.00628556
1854	0.00645544
1866	0.00866388
1878	0.0108723
1890	0.0110422
1902	0.00671026
1914	0.00373736
1926	0.004247
1938	0.00900364
1950	0.0102777
1962	0.00942834
1974	0.00331266
1986	0.0016988
1998	0.00161386
2010	0.00144398
2022	0.0012741
2034	0.0021235
2046	0.00263314
2058	0.0025482
2070	0.00331266
2082	0.00365242
2094	0.00288796
2106	0.0025482
2118	0.00271808
2130	0.00229338
2142	0.00195362
2154	0.00144398
2166	0.00144398
2178	0.00101928
2190	0.00144398
2202	0.00093434
2214	0.00076446
2226	0.00059458
2238	0.00067952
2250	0.00067952
2262	0.0004247
2274	0.00033976
2286	0.0004247
2298	0.00059458
2310	0.00220844
2322	0.0021235
2334	0.00059458
2346	0.0059458
2358	0.00067952
2370	0.00152892
2382	0.0029729
2394	0.00220844
2406	0.00203856
2418	0.00178374
2430	0.00178374
2442	0.00161386
2454	0.00144398
2466	0.00152892
2478	0.0012741
2490	0.00101928
2502	0.00101928
2514	0.00067952
2526	0.00067952
2538	0.00067952
2550	0.00076446
2562	0.00076446
2574	0.00067952
2586	0.00101928
2598	0.00135904
2610	0.0016988
2622	0.00178374
2634	0.00186868
2646	0.00118916
2658	0.00135904
2670	0.00195362
2682	0.00195362
2694	0.00186868
2706	0.00118916
2718	0.00195362
2730	0.00263314
2742	0.00280302
2754	0.00331266
2766	0.00416206
2778	0.00535122
2790	0.0059458
2802	0.0063705
2814	0.0076446
2826	0.00968316
2838	0.0124012
2850	0.0163085
2862	0.0209802
2874	0.0282001
2886	0.0426399
2898	0.0531724
2910	0.0716044
2922	0.073643
2934	0.0741526
2946	0.0981057
2958	0.0805231
2970	0.0941135
2982	0.159517
2994	0.181432
3006	0.106685
3018	0.0717743
3030	0.0816273
3042	0.11314
3054	0.0739827
3066	0.0953027
3078	0.126815
3090	0.0681219
3102	0.0482459
3114	0.0276904
3126	0.0124862
3138	0.00628556
3150	0.00518134
3162	0.00484158
3174	0.0046717
3186	0.00348254
3198	0.00263314
3210	0.00220844
3222	0.00203856
3234	0.00152892
3246	0.00161386
3258	0.00093434
3270	0.00152892
3282	0.0008494
3294	0.00033976
3306	0.00033976
3318	0.0008494
3330	0.00093434
3342	0.0008494
3354	0.00093434
3366	0.00144398
3378	0.00076446
3390	0.00195362
3402	0.0021235
3414	0.0016988
3426	0.00178374
3438	0.00280302
3450	0.00246326
3462	0.00484158
3474	0.00654038
3486	0.00611568
3498	0.00798436
3510	0.00959822
3522	0.0123163
3534	0.0227639
3546	0.0592881
3558	0.125286
3570	0.124862
3582	0.0769556
3594	0.0419604
3606	0.0225091
3618	0.0218296
3630	0.0381381
3642	0.0292194
3654	0.0149494
3666	0.00611568
3678	0.00874882
3690	0.00390724
3702	0.00348254
3714	0.00331266
3726	0.0038223
3738	0.00416206
3750	0.00050964
3762	0.00237832
3774	0.00263314
3786	0.0012741
3798	0.00348254
3810	0.00025482
3822	0.00314278
3834	0.0033976
3846	0.00161386
3858	0.00373736
3870	0.00450182
3882	0.00365242
3894	0.00373736
3906	0.00348254
3918	0.00280302
3930	0.00484158
3942	0.00059458
3954	0.00280302
3966	0.00067952
