Infrared Spectrum: 5',6',7',8'-Tetrahydro-2'-acetonaphthone
Formula: C 12 H 14 O
CAS: 774-55-0
Origin: Sadtler Research Labs Under US-EPA Contract
1/CM	ABSORBANCE
450	0.0119124
462	0.00481565
474	0.00135176
486	0.00211212
498	0.00321043
510	0.00413977
522	0.00456219
534	0.00261904
546	0.00574498
558	0.0158832
570	0.0416511
582	0.0577033
594	0.0523807
606	0.0378493
618	0.0228954
630	0.0190936
642	0.0131797
654	0.00895541
666	0.0190091
678	0.0240782
690	0.00667432
702	0.0119969
714	0.00726571
726	0.00380182
738	0.00473116
750	0.00185867
762	0.00202764
774	0.00591395
786	0.00726571
798	0.0286404
810	0.0531411
822	0.064631
834	0.0695312
846	0.0368355
858	0.0190936
870	0.0103072
882	0.014278
894	0.0154608
906	0.0236558
918	0.0347233
930	0.036413
942	0.0357372
954	0.0655604
966	0.0717278
978	0.0303301
990	0.0169815
1002	0.016728
1014	0.0193471
1026	0.0239937
1038	0.0144469
1050	0.0131797
1062	0.0162211
1074	0.0180798
1086	0.0181643
1098	0.0148694
1110	0.0288939
1122	0.0732485
1134	0.0887937
1146	0.0539859
1158	0.0397079
1170	0.118532
1182	0.112619
1194	0.0519583
1206	0.0490013
1218	0.0707984
1230	0.153509
1242	0.199385
1254	0.312763
1266	0.628991
1278	0.279054
1290	0.141428
1302	0.107211
1314	0.0492548
1326	0.0446081
1338	0.050522
1350	0.137373
1362	0.242641
1374	0.093018
1386	0.0410597
1398	0.0518738
1410	0.119462
1422	0.124531
1434	0.0916662
1446	0.0948767
1458	0.0675035
1470	0.0432563
1482	0.0211213
1494	0.0269507
1506	0.0161366
1518	0.00929335
1530	0.0108141
1542	0.0144469
1554	0.0298232
1566	0.0676725
1578	0.0729106
1590	0.0431718
1602	0.0979181
1614	0.105268
1626	0.0289784
1638	0.0200229
1650	0.0266128
1662	0.0491703
1674	0.0529721
1686	0.156382
1698	0.70452
1710	0.645212
1722	0.126643
1734	0.0503531
1746	0.05086
1758	0.0279645
1770	0.0130107
1782	0.0101382
1794	0.0078571
1806	0.00726571
1818	0.00498462
1830	0.00354837
1842	0.00413977
1854	0.00473116
1866	0.00490013
1878	0.00498462
1890	0.00388631
1902	0.00498462
1914	0.00380182
1926	0.00566049
1938	0.00751917
1950	0.0039708
1962	0.00219661
1974	0.00084485
1986	0.000422425
1998	0.00033794
2010	0.000591395
2022	0.00084485
2034	0.0016897
2046	0.00118279
2058	0.000422425
2070	0.000422425
2082	0.000253455
2094	0
2106	8.4485e-05
2118	0.00033794
2130	0.000253455
2142	0.00033794
2154	0.00033794
2166	0.00084485
2178	0.00050691
2190	0.00033794
2202	0.000929335
2214	0.00126727
2226	0.00143625
2238	0.00118279
2250	0.000591395
2262	0.00084485
2274	0.00084485
2286	0.00067588
2298	0.00177418
2310	0.00202764
2322	0.00253455
2334	0.00177418
2346	0.00253455
2358	0.00126727
2370	0.00185867
2382	0.00194316
2394	0.00126727
2406	0.0016897
2418	0.00126727
2430	0.00126727
2442	0.00160522
2454	0.00177418
2466	0.00228109
2478	0.00211212
2490	0.00160522
2502	0.00177418
2514	0.00185867
2526	0.00228109
2538	0.00253455
2550	0.00219661
2562	0.00270352
2574	0.00329492
2586	0.00371734
2598	0.00456219
2610	0.00371734
2622	0.00363285
2634	0.00346388
2646	0.00430874
2658	0.0067588
2670	0.00836402
2682	0.00591395
2694	0.00422425
2706	0.00329492
2718	0.00295698
2730	0.0033794
2742	0.00447771
2754	0.00498462
2766	0.00658983
2778	0.00751917
2790	0.00878644
2802	0.010983
2814	0.0137711
2826	0.0201074
2838	0.045284
2850	0.102311
2862	0.131543
2874	0.180713
2886	0.127572
2898	0.127234
2910	0.127319
2922	0.218309
2934	0.435436
2946	0.606349
2958	0.386181
2970	0.112956
2982	0.0784021
2994	0.0577877
3006	0.0626879
3018	0.0880334
3030	0.0796694
3042	0.0498461
3054	0.0402993
3066	0.0428339
3078	0.0495082
3090	0.0309215
3102	0.0181643
3114	0.014278
3126	0.00920887
3138	0.00599843
3150	0.00481565
3162	0.00422425
3174	0.00371734
3186	0.00380182
3198	0.0033794
3210	0.00329492
3222	0.00304146
3234	0.00261904
3246	0.00261904
3258	0.00211212
3270	0.00194316
3282	0.00177418
3294	0.00160522
3306	0.00160522
3318	0.00152073
3330	0.00185867
3342	0.00287249
3354	0.00295698
3366	0.00447771
3378	0.0108986
3390	0.0132641
3402	0.00633637
3414	0.00228109
3426	0.00261904
3438	0.00219661
3450	0.00143625
3462	0.00143625
3474	0.0016897
3486	0.00160522
3498	0.00202764
3510	0.00126727
3522	0.00194316
3534	0.00253455
3546	0.00245006
3558	0.00194316
3570	0.00219661
3582	0.00211212
3594	0.00211212
3606	0.00126727
3618	0.00278801
3630	0.0033794
3642	0.00354837
3654	0.00354837
3666	0.00219661
3678	0.00304146
3690	0.00354837
3702	0.00228109
3714	0.00287249
3726	0.00253455
3738	0.00371734
3750	0.00253455
3762	0.00278801
3774	0.00160522
3786	0.00261904
3798	0.00278801
3810	0.00304146
3822	0.00219661
3834	0.00304146
3846	0.00211212
3858	0.00321043
3870	0.00245006
3882	0.00295698
3894	0.00253455
3906	0.00236558
3918	0.00211212
3930	0.00312595
3942	0.00270352
3954	0.00253455
3966	0.00160522
