Infrared Spectrum: Benzene, 1-fluoro-4-(2-nitro-1-propenyl)-
Formula: C 9 H 8 F N O 2
CAS: 775-31-5
Origin: Sadtler Research Labs Under US-EPA Contract
1/CM	ABSORBANCE
450	0.0029489
462	0.0106001
474	0.0097234
486	0.0125926
498	0.0332349
510	0.107276
522	0.129592
534	0.0973934
546	0.0562682
558	0.0113971
570	0.0049414
582	0.0027895
594	0.0012752
606	0.0013549
618	0.0019128
630	0.001594
642	0.0029489
654	0.0028692
666	0.0003188
678	0.0045429
690	0.0067745
702	0.0146648
714	0.0246273
726	0.0208814
738	0.0130708
750	0.0082888
762	0.0081294
774	0.0166573
786	0.0471027
798	0.0307642
810	0.0525223
822	0.120746
834	0.214154
846	0.263329
858	0.12226
870	0.0938866
882	0.0516456
894	0.0527614
906	0.0642382
918	0.0369808
930	0.0158603
942	0.0155415
954	0.0198453
966	0.037459
978	0.110544
990	0.0913362
1002	0.0275762
1014	0.035865
1026	0.0177731
1038	0.01594
1050	0.0138678
1062	0.0115565
1074	0.0157806
1086	0.0251852
1098	0.0324379
1110	0.030286
1122	0.0204829
1134	0.0137084
1146	0.0170558
1158	0.190642
1170	0.0711721
1182	0.0174543
1194	0.0233521
1206	0.0407267
1218	0.0841632
1230	0.182354
1242	0.763845
1254	0.274088
1266	0.0620863
1278	0.0498125
1290	0.0510877
1302	0.0687811
1314	0.13278
1326	0.388697
1338	0.535345
1350	0.243723
1362	0.0887858
1374	0.064557
1386	0.0973137
1398	0.104566
1410	0.0702157
1422	0.0520441
1434	0.0494937
1446	0.0602532
1458	0.0459869
1470	0.0433568
1482	0.0489358
1494	0.098031
1506	0.440582
1518	0.603967
1530	0.396667
1542	0.663502
1554	0.511196
1566	0.236151
1578	0.150553
1590	0.138279
1602	0.229456
1614	0.176695
1626	0.0415237
1638	0.0272574
1650	0.0211205
1662	0.0354665
1674	0.03188
1686	0.0064557
1698	0.0033474
1710	0.00797
1722	0.0082091
1734	0.0043038
1746	0.0058978
1758	0.011158
1770	0.0101219
1782	0.0053399
1794	0.0042241
1806	0.0059775
1818	0.0043038
1830	0.0014346
1842	0.0018331
1854	0.003985
1866	0.0041444
1878	0.0090858
1890	0.0144257
1902	0.0122738
1914	0.0036662
1926	0.0020722
1938	0.003188
1950	0.0029489
1962	0.0025504
1974	0.0021519
1986	0.0021519
1998	0.0030286
2010	0.0036662
2022	0.0051008
2034	0.0049414
2046	0.0024707
2058	0.0027895
2070	0.0034271
2082	0.0035068
2094	0.0028692
2106	0.0018331
2118	0.0014346
2130	0.000797
2142	0.0003188
2154	0.0003188
2166	0.0009564
2178	0.0014346
2190	0.0012752
2202	0.0017534
2214	0.0015143
2226	0.0016737
2238	0.0013549
2250	0.001594
2262	0.0022316
2274	0.0017534
2286	0.001594
2298	0.0027895
2310	0.003188
2322	0.0040647
2334	0.004782
2346	0.0046226
2358	0.0050211
2370	0.0045429
2382	0.0043835
2394	0.0036662
2406	0.0049414
2418	0.0029489
2430	0.0033474
2442	0.0039053
2454	0.0035068
2466	0.0037459
2478	0.0049414
2490	0.0042241
2502	0.0021519
2514	0.0021519
2526	0.0019128
2538	0.0015143
2550	0.0021519
2562	0.0029489
2574	0.0026301
2586	0.0009564
2598	0.0003985
2610	0.0006376
2622	0.000797
2634	0.0011158
2646	0.0014346
2658	0.0025504
2670	0.0019925
2682	0.0012752
2694	0.0009564
2706	0.0012752
2718	0.001594
2730	0.0017534
2742	0.0020722
2754	0.0027895
2766	0.003188
2778	0.0028692
2790	0.0023113
2802	0.0034271
2814	0.004782
2826	0.0067745
2838	0.0094843
2850	0.0105204
2862	0.0168964
2874	0.0176934
2886	0.0131505
2898	0.0085279
2910	0.0047023
2922	0
2934	0.0124332
2946	0.0234318
2958	0.0184904
2970	0.0177731
2982	0.0204829
2994	0.0192077
3006	0.0205626
3018	0.0137881
3030	0.0097234
3042	0.0190483
3054	0.0321988
3066	0.0225551
3078	0.0187295
3090	0.011955
3102	0.0084482
3114	0.0094046
3126	0.0085279
3138	0.0044632
3150	0.0019925
3162	0.0020722
3174	0.0019128
3186	0.0016737
3198	0.0014346
3210	0.0011158
3222	0.0011158
3234	0.001594
3246	0.0011955
3258	0.0012752
3270	0.0012752
3282	0.0012752
3294	0.0011158
3306	0.0011955
3318	0.0010361
3330	0.0008767
3342	0.0011955
3354	0.0011158
3366	0.0013549
3378	0.0011158
3390	0.0015143
3402	0.0007173
3414	0.0015143
3426	0.0010361
3438	0.0010361
3450	0.000797
3462	0.0013549
3474	0.0008767
3486	0.001594
3498	0.0011158
3510	0.0011955
3522	0.000797
3534	0.0008767
3546	0.0008767
3558	0.0011158
3570	0.0015143
3582	0.0011158
3594	0.0015143
3606	0.0009564
3618	0.0015143
3630	0.0014346
3642	0.0019128
3654	0.001594
3666	0.0020722
3678	0.0005579
3690	0.0015143
3702	0.0026301
3714	0.0018331
3726	0.0023113
3738	0.0020722
3750	0.0017534
3762	0.0010361
3774	0.000797
3786	0.0015143
3798	7.97e-05
3810	0.0019128
3822	0.0013549
3834	0.0019128
3846	0.0021519
3858	0.0013549
3870	0.0019925
3882	0.0019128
3894	0.001594
3906	0.0018331
3918	0.0009564
3930	0.0012752
3942	0.0017534
3954	0.0023113
3966	0.0026301
