Infrared Spectrum: Silane, diphenyl-
Formula: C 12 H 12 Si
CAS: 775-12-2
Origin: Sadtler Research Labs Under US-EPA Contract
1/CM	ABSORBANCE
450	0.00424575
462	0.0175368
474	0.0657169
486	0.0559332
498	0.0131065
510	0.00553794
522	0.000369196
534	0.000369196
546	0.00461495
558	0.00350736
570	0.0195674
582	0.114082
594	0.186813
606	0.0577792
618	0.0155062
630	0.00849151
642	0.00498415
654	0.0094145
666	0.0186444
678	0.0677475
690	0.194197
702	0.25696
714	0.171676
726	0.205827
738	0.180721
750	0.0777158
762	0.0411654
774	0.0199366
786	0.0103375
798	0.0110759
810	0.0134757
822	0.0191982
834	0.0587022
846	1.21318
858	1.02452
870	0.0731008
882	0.0280589
894	0.0491031
906	0.0446727
918	0.0507645
930	0.195489
942	0.346121
954	0.145094
966	0.0243669
978	0.00812231
990	0.00590714
1002	0.0088607
1014	0.00516874
1026	0.00553794
1038	0.00350736
1050	0.00775312
1062	0.0155062
1074	0.020675
1086	0.0252899
1098	0.0732854
1110	0.112051
1122	0.317878
1134	0.0845459
1146	0.0090453
1158	0.00553794
1170	0.00590714
1182	0.0116297
1194	0.0306433
1206	0.00276897
1218	0.00369196
1230	0.00424575
1242	0.00572254
1254	0.00812231
1266	0.00996829
1278	0.0132911
1290	0.0138449
1302	0.0147678
1314	0.0112605
1326	0.0143986
1338	0.0119989
1350	0.00646093
1362	0.00627633
1374	0.00719932
1386	0.00572254
1398	0.00609173
1410	0.0155062
1422	0.0596252
1434	0.0898992
1446	0.0389502
1458	0.0105221
1470	0.00609173
1482	0.0131065
1494	0.0125527
1506	0.00276897
1518	0.00332276
1530	0.00553794
1542	0.00738392
1554	0.00849151
1566	0.00830691
1578	0.0088607
1590	0.0121835
1602	0.00775312
1614	0.00627633
1626	0.00553794
1638	0.00590714
1650	0.00590714
1662	0.00461495
1674	0.00387656
1686	0.00406116
1698	0.00313817
1710	0.00221518
1722	0.00147678
1734	0.00239977
1746	0.00369196
1758	0.00572254
1770	0.00590714
1782	0.00461495
1794	0.00443035
1806	0.0121835
1818	0.0195674
1830	0.0092299
1842	0.00387656
1854	0.00295357
1866	0.00590714
1878	0.0119989
1890	0.0158754
1902	0.0127373
1914	0.00258437
1926	0.00276897
1938	0.00683013
1950	0.014214
1962	0.0175368
1974	0.0105221
1986	0.00295357
1998	0.00258437
2010	0.00221518
2022	0.00166138
2034	0.000738392
2046	0.000738392
2058	0.00092299
2070	0.00166138
2082	0.00276897
2094	0.00313817
2106	0.00609173
2118	0.0193828
2130	0.11242
2142	0.660861
2154	0.713656
2166	0.140848
2178	0.0167984
2190	0.00719932
2202	0.00313817
2214	0.00221518
2226	0.00276897
2238	0.00221518
2250	0.00166138
2262	0.00166138
2274	0.00239977
2286	0.00276897
2298	0.00313817
2310	0.00461495
2322	0.00664553
2334	0.00479955
2346	0.00627633
2358	0.00424575
2370	0.00313817
2382	0.00166138
2394	0.00110759
2406	0.000553794
2418	0
2430	0.000184598
2442	0.000369196
2454	0
2466	0.000369196
2478	0.000369196
2490	0.000369196
2502	0.000369196
2514	0.000553794
2526	0.00092299
2538	0.00092299
2550	0.000738392
2562	0.00092299
2574	0.00110759
2586	0.00258437
2598	0.00166138
2610	0.00184598
2622	0.00276897
2634	0.00129219
2646	0.00092299
2658	0.00092299
2670	0.00129219
2682	0.00147678
2694	0.00276897
2706	0.00295357
2718	0.00258437
2730	0.00129219
2742	0.000553794
2754	0.000553794
2766	0.000738392
2778	0.000553794
2790	0.00092299
2802	0.00221518
2814	0.00239977
2826	0.00313817
2838	0.00258437
2850	0.00276897
2862	0.00295357
2874	0.00239977
2886	0.00295357
2898	0.00553794
2910	0.00646093
2922	0.00646093
2934	0.00406116
2946	0.00276897
2958	0.00350736
2970	0.00535334
2982	0.00830691
2994	0.0223364
3006	0.0544564
3018	0.112974
3030	0.0791925
3042	0.0489185
3054	0.108728
3066	0.270436
3078	0.175184
3090	0.115558
3102	0.0474417
3114	0.0110759
3126	0.00756852
3138	0.0131065
3150	0.0095991
3162	0.00239977
3174	0.00239977
3186	0.00258437
3198	0.00166138
3210	0.00203058
3222	0.00147678
3234	0.00166138
3246	0.00147678
3258	0.00110759
3270	0.00147678
3282	0.00184598
3294	0.00092299
3306	0.00129219
3318	0.00147678
3330	0.00184598
3342	0.00129219
3354	0.00110759
3366	0.00203058
3378	0.00166138
3390	0.00166138
3402	0.00203058
3414	0.00221518
3426	0.00129219
3438	0.00239977
3450	0.00221518
3462	0.00166138
3474	0.00203058
3486	0.00239977
3498	0.00184598
3510	0.00203058
3522	0.00166138
3534	0.00239977
3546	0.00239977
3558	0.00203058
3570	0.000184598
3582	0.00184598
3594	0.00203058
3606	0.00221518
3618	0.00276897
3630	0.00221518
3642	0.00313817
3654	0.00276897
3666	0.00276897
3678	0.00276897
3690	0.00332276
3702	0.00369196
3714	0.00258437
3726	0.00239977
3738	0.00350736
3750	0.00350736
3762	0.00295357
3774	0.00276897
3786	0.00276897
3798	0.00239977
3810	0.00258437
3822	0.00258437
3834	0.00239977
3846	0.00129219
3858	0.00350736
3870	0.00295357
3882	0.00221518
3894	0.00221518
3906	0.00350736
3918	0.00147678
3930	0.00258437
3942	0.00203058
3954	0.00147678
3966	0.00295357
