Infrared Spectrum: 2,5-Furandione, dihydro-3-(1-octenyl)-
Formula: C 12 H 18 O 3
CAS: 7757-96-2
Origin: Sadtler Research Labs Under US-EPA Contract
1/CM	ABSORBANCE
450	0.000143307
462	0.0295212
474	0.00941049
486	0.0116556
498	0.0371643
510	0.0156682
522	0.0159548
534	0.0240756
546	0.0218782
558	0.0226425
570	0.0334861
582	0.0249832
594	0.0298556
606	0.0187732
618	0.0267984
630	0.0240756
642	0.0247443
654	0.0248399
666	0.0243622
678	0.0267029
690	0.0274672
702	0.0273716
714	0.0329606
726	0.0327218
738	0.0343937
750	0.0164803
762	0.021305
774	0.0203496
786	0.0216394
798	0.0182478
810	0.0217349
822	0.0204929
834	0.0205407
846	0.0192987
858	0.0214961
870	0.0254131
882	0.0451895
894	0.0749973
906	0.104901
918	0.136333
930	0.110872
942	0.0763826
954	0.0655391
966	0.0654435
978	0.0680708
990	0.0535013
1002	0.0479123
1014	0.0492021
1026	0.055221
1038	0.0670199
1050	0.0899013
1062	0.118945
1074	0.109773
1086	0.0576572
1098	0.0336771
1110	0.0275149
1122	0.025652
1134	0.0251265
1146	0.0247921
1158	0.0296168
1170	0.0344414
1182	0.040938
1194	0.0513517
1206	0.0682619
1218	0.081685
1230	0.0816372
1242	0.0608099
1254	0.0461926
1266	0.0360656
1278	0.0307632
1290	0.0263685
1302	0.0251265
1314	0.0265118
1326	0.0257475
1338	0.0234068
1350	0.0212094
1362	0.0199197
1374	0.0189165
1386	0.0191554
1398	0.0167669
1410	0.0164325
1422	0.0232157
1434	0.0289958
1446	0.0301422
1458	0.0284226
1470	0.0270373
1482	0.0164803
1494	0.0121811
1506	0.0128976
1518	0.0133276
1530	0.0121811
1542	0.0111779
1554	0.0102703
1566	0.0108436
1578	0.0107958
1590	0.00802519
1602	0.0105092
1614	0.0116556
1626	0.0100315
1638	0.0128976
1650	0.0145218
1662	0.0120856
1674	0.0115123
1686	0.0132798
1698	0.0138052
1710	0.0111779
1722	0.0160982
1734	0.0168625
1746	0.0202063
1758	0.0254609
1770	0.0479601
1782	0.0963023
1794	0.22953
1806	0.472388
1818	0.301566
1830	0.120664
1842	0.0655868
1854	0.0506829
1866	0.0647748
1878	0.113404
1890	0.0516861
1902	0.0193464
1914	0.0118467
1926	0.0100315
1938	0.0089328
1950	0.00749973
1962	0.00697427
1974	0.0061622
1986	0.00568451
1998	0.00606666
2010	0.00654435
2022	0.00597113
2034	0.00463359
2046	0.00463359
2058	0.00482467
2070	0.00468136
2082	0.00472913
2094	0.00482467
2106	0.00563674
2118	0.00511128
2130	0.00487244
2142	0.0047769
2154	0.0047769
2166	0.00468136
2178	0.00386929
2190	0.00334383
2202	0.00358268
2214	0.00310499
2226	0.00358268
2238	0.00310499
2250	0.00310499
2262	0.0033916
2274	0.00291391
2286	0.00296168
2298	0.00286614
2310	0.00262729
2322	0.00353491
2334	0.00243622
2346	0.00281837
2358	0.00124199
2370	0.00152861
2382	0.00162415
2394	0.000716535
2406	0.00157638
2418	0.0013853
2430	0.000907611
2442	0.00124199
2454	0.00095538
2466	0.000859842
2478	0.000620997
2490	0.000382152
2502	0.000573228
2514	0.00128976
2526	0.000859842
2538	0.000668766
2550	0.00109869
2562	0.00095538
2574	0.00114646
2586	0.00095538
2598	0.00105092
2610	0.00157638
2622	0.00124199
2634	0.00105092
2646	0.0020063
2658	0.00238845
2670	0.00205407
2682	0.00191076
2694	0.0020063
2706	0.00191076
2718	0.00219737
2730	0.00257953
2742	0.00267506
2754	0.00281837
2766	0.00310499
2778	0.00296168
2790	0.00425144
2802	0.00429921
2814	0.0053979
2826	0.00802519
2838	0.0118945
2850	0.0240278
2862	0.0482467
2874	0.050874
2886	0.0457149
2898	0.0394572
2910	0.0532624
2922	0.0892803
2934	0.145887
2946	0.117798
2958	0.0769081
2970	0.0947737
2982	0.052737
2994	0.0270373
3006	0.0194898
3018	0.0177701
3030	0.0149995
3042	0.0107003
3054	0.00668766
3066	0.00472913
3078	0.00482467
3090	0.00386929
3102	0.00358268
3114	0.00324829
3126	0.00310499
3138	0.00267506
3150	0.00281837
3162	0.0033916
3174	0.00281837
3186	0.00286614
3198	0.00300945
3210	0.00229291
3222	0.00248399
3234	0.00243622
3246	0.00167192
3258	0.00162415
3270	0.00186299
3282	0.00143307
3294	0.00171968
3306	0.00176745
3318	0.0013853
3330	0.0020063
3342	0.00214961
3354	0.00167192
3366	0.00167192
3378	0.00167192
3390	0.00105092
3402	0.00119423
3414	0.00238845
3426	0.00181522
3438	0.00105092
3450	0.0020063
3462	0.00234068
3474	0.00047769
3486	0.000907611
3498	0.000334383
3510	0.00219737
3522	0.00176745
3534	0.00133753
3546	0.000525459
3558	0.00291391
3570	0.00186299
3582	0.00449029
3594	0.00181522
3606	0.00286614
3618	0.00262729
3630	0.00238845
3642	0.00511128
3654	0.00654435
3666	0.0061622
3678	0.00850288
3690	0.00386929
3702	0.00224514
3714	0.00286614
3726	0.00267506
3738	0.00439475
3750	0.00105092
3762	0.00181522
3774	0.00324829
3786	0.00257953
3798	0.0020063
3810	0.000238845
3822	0.00511128
3834	0.00114646
3846	0.00157638
3858	0.00410813
3870	0.00363044
3882	0.00205407
3894	0.00334383
3906	0.00396483
3918	0.00296168
3930	0.00219737
3942	0.00219737
3954	0.00396483
3966	0.00654435
