Infrared Spectrum: 3,4-Dimethoxyphenylacetone
Formula: C 11 H 14 O 3
CAS: 776-99-8
Origin: Sadtler Research Labs Under US-EPA Contract
1/CM	ABSORBANCE
450	0.0117043
462	0.0127619
474	0.00112813
486	0.00514708
498	0.0160053
510	0.0255239
522	0.035113
534	0.0491441
546	0.0281327
558	0.0184731
570	0.0210114
582	0.0207294
594	0.0214344
606	0.0196012
618	0.0199538
630	0.0334208
642	0.0339849
654	0.0138196
666	0.00253829
678	0.00451251
690	0.00944807
702	0.00895452
714	0.0157233
726	0.0272161
738	0.0382153
750	0.0475224
762	0.0595793
774	0.0509068
786	0.048157
798	0.0439265
810	0.0530925
822	0.0510478
834	0.0339849
846	0.0290493
858	0.0288378
870	0.0296839
882	0.0294018
894	0.0221395
906	0.0197422
918	0.0287673
930	0.0365231
942	0.0285557
954	0.0225626
966	0.0313056
978	0.039978
990	0.0500607
1002	0.0855262
1014	0.164918
1026	0.289294
1038	0.309178
1050	0.148067
1062	0.0559128
1074	0.0372282
1086	0.0392024
1098	0.0473814
1110	0.088135
1122	0.191218
1134	0.272936
1146	0.322927
1158	0.285416
1170	0.150041
1182	0.123389
1194	0.12494
1206	0.168514
1218	0.301986
1230	0.378698
1242	0.358956
1254	0.368686
1266	0.639931
1278	0.638097
1290	0.373622
1302	0.223299
1314	0.146375
1326	0.11655
1338	0.0960319
1350	0.11662
1362	0.152861
1374	0.0806612
1386	0.0624701
1398	0.070508
1410	0.133754
1422	0.16936
1434	0.129946
1446	0.148419
1458	0.158784
1470	0.177962
1482	0.128113
1494	0.223863
1506	0.600869
1518	0.550103
1530	0.1499
1542	0.0657135
1554	0.0497786
1566	0.0582396
1578	0.09716
1590	0.108582
1602	0.0997688
1614	0.0714246
1626	0.031235
1638	0.0239727
1650	0.022351
1662	0.0244663
1674	0.0346194
1686	0.0579576
1698	0.0821418
1710	0.152015
1722	0.325183
1734	0.328356
1746	0.185859
1758	0.126632
1770	0.0662775
1782	0.0349015
1794	0.026511
1806	0.0193897
1818	0.0140311
1830	0.0108582
1842	0.00902502
1854	0.0103647
1866	0.0107877
1878	0.00909553
1890	0.00867248
1902	0.00683928
1914	0.00634572
1926	0.00479454
1938	0.00549962
1950	0.00662775
1962	0.00683928
1974	0.00719182
1986	0.00775588
1998	0.0097301
2010	0.0116338
2022	0.0146657
2034	0.0162168
2046	0.013326
2058	0.0123389
2070	0.0112108
2082	0.0096596
2094	0.0070508
2106	0.00479454
2118	0.00317286
2130	0.00310235
2142	0.00380743
2154	0.00423048
2166	0.00310235
2178	0.00423048
2190	0.00415997
2202	0.00430099
2214	0.00310235
2226	0.00289083
2238	0.00303184
2250	0.00345489
2262	0.00338438
2274	0.004442
2286	0.00507658
2298	0.00564064
2310	0.00747385
2322	0.00669826
2334	0.0052881
2346	0.00500607
2358	0.00401896
2370	0
2382	0.000211524
2394	0.00141016
2406	0.00155118
2418	0.00162168
2430	0.0026088
2442	0.00204473
2454	0.00218575
2466	0.0026088
2478	0.0026793
2490	0.00317286
2502	0.00380743
2514	0.00486505
2526	0.00415997
2538	0.00535861
2550	0.00592267
2562	0.00592267
2574	0.0070508
2586	0.00606369
2598	0.00634572
2610	0.00514708
2622	0.00423048
2634	0.00324337
2646	0.00274981
2658	0.00338438
2670	0.00317286
2682	0.0043715
2694	0.00458302
2706	0.00698029
2718	0.00803791
2730	0.00782639
2742	0.00627521
2754	0.00585216
2766	0.00726232
2778	0.00803791
2790	0.0126914
2802	0.0192487
2814	0.030953
2826	0.0555603
2838	0.120357
2850	0.119229
2862	0.0696619
2874	0.0654314
2886	0.0743859
2898	0.0901092
2910	0.122825
2922	0.163367
2934	0.187058
2946	0.23035
2958	0.201723
2970	0.15265
2982	0.111755
2994	0.122825
3006	0.180641
3018	0.118594
3030	0.0658545
3042	0.0651494
3054	0.0602138
3066	0.0499902
3078	0.0372987
3090	0.0270046
3102	0.0204473
3114	0.0153002
3126	0.0101532
3138	0.00803791
3150	0.00606369
3162	0.00415997
3174	0.00401896
3186	0.00239727
3198	0.00317286
3210	0.00225626
3222	0.00070508
3234	0.000916604
3246	0.000493556
3258	0.000916604
3270	0.000916604
3282	0.00133965
3294	0.00119864
3306	0.000987112
3318	0.00204473
3330	0.00105762
3342	0.00105762
3354	0.00197422
3366	0.00197422
3378	0.00162168
3390	0.00211524
3402	0.0026793
3414	0.00394845
3426	0.00472404
3438	0.00726232
3450	0.00507658
3462	0.00338438
3474	0.00148067
3486	0.00148067
3498	0.00183321
3510	0.00105762
3522	0.00197422
3534	0.00246778
3546	0.00169219
3558	0.00324337
3570	0.0061342
3582	0.00944807
3594	0.00874299
3606	0.00401896
3618	0.00155118
3630	0.0035254
3642	0.00274981
3654	0.00338438
3666	0.00239727
3678	0.000916604
3690	0.00148067
3702	0.00112813
3714	0.00211524
3726	0.00035254
3738	0.00070508
3750	0
3762	0
3774	0
3786	0
3798	0
3810	0
3822	0
3834	0
3846	0
3858	0
3870	0
3882	0
3894	0
3906	0
3918	0
3930	0
3942	0
3954	0
3966	0
