Infrared Spectrum: Benzeneethanol, 2-hydroxy-
Formula: C 8 H 10 O 2
CAS: 7768-28-7
Origin: Sadtler Research Labs Under US-EPA Contract
1/CM	ABSORBANCE
450	0
462	0.0271995
474	0.0410122
486	0.0618834
498	0.0407688
510	0.0228184
522	0.0271387
534	0.0315198
546	0.0309721
558	0.031033
570	0.0301203
582	0.0318849
594	0.0426551
606	0.039491
618	0.0284165
630	0.022575
642	0.0197151
654	0.0183764
666	0.018133
678	0.0258
690	0.0270778
702	0.0376655
714	0.0587193
726	0.0967499
738	0.261286
750	0.60849
762	0.263415
774	0.052391
786	0.025374
798	0.0200802
810	0.0276254
822	0.0744183
834	0.1018
846	0.0780084
858	0.0779476
870	0.0533646
882	0.0262259
894	0.0196542
906	0.0182547
918	0.0245221
930	0.0424118
942	0.0456976
954	0.0474622
966	0.0442372
978	0.0556768
990	0.0836674
1002	0.130034
1014	0.17561
1026	0.238102
1038	0.439026
1050	0.444745
1062	0.240354
1074	0.139709
1086	0.155469
1098	0.222707
1110	0.165814
1122	0.0986362
1134	0.100766
1146	0.149567
1158	0.203114
1170	0.243579
1182	0.233417
1194	0.251489
1206	0.332601
1218	0.415477
1230	0.490139
1242	0.494033
1254	0.429411
1266	0.322865
1278	0.192222
1290	0.123219
1302	0.121515
1314	0.173724
1326	0.201714
1338	0.153765
1350	0.144212
1362	0.152914
1374	0.147559
1386	0.135998
1398	0.125349
1410	0.106547
1422	0.092673
1434	0.116282
1446	0.175549
1458	0.254896
1470	0.222829
1482	0.339294
1494	0.450891
1506	0.264328
1518	0.0836674
1530	0.0450891
1542	0.0352316
1554	0.0398561
1566	0.07454
1578	0.181513
1590	0.238589
1602	0.183581
1614	0.165083
1626	0.135511
1638	0.0438721
1650	0.0266519
1662	0.0355967
1674	0.0312155
1686	0.0224533
1698	0.0229401
1710	0.0219665
1722	0.0202627
1734	0.0209929
1746	0.0204453
1758	0.0236703
1770	0.0285382
1782	0.0270778
1794	0.0242179
1806	0.0216622
1818	0.0209321
1830	0.0212972
1842	0.022149
1854	0.0215405
1866	0.022149
1878	0.0256174
1890	0.0340754
1902	0.0306679
1914	0.0258
1926	0.0306679
1938	0.0259217
1950	0.0178896
1962	0.0176462
1974	0.0178288
1986	0.0180722
1998	0.0183764
2010	0.0183764
2022	0.0189849
2034	0.0198368
2046	0.0210538
2058	0.0224533
2070	0.0227575
2082	0.0219056
2094	0.0209321
2106	0.0199585
2118	0.0186806
2130	0.0179505
2142	0.0176462
2154	0.0174637
2166	0.0174637
2178	0.0172811
2190	0.017342
2202	0.0174028
2214	0.0175245
2226	0.017342
2238	0.0174028
2250	0.0175854
2262	0.0180113
2274	0.0180722
2286	0.0195325
2298	0.0216622
2310	0.0242179
2322	0.0231835
2334	0.0198368
2346	0.0215405
2358	0.0180722
2370	0.0188023
2382	0.0206887
2394	0.018133
2406	0.0191674
2418	0.0202019
2430	0.0202019
2442	0.0200802
2454	0.0200802
2466	0.0200193
2478	0.0198976
2490	0.0202019
2502	0.0195934
2514	0.0186806
2526	0.0177679
2538	0.016916
2550	0.0165509
2562	0.0163684
2574	0.0167943
2586	0.0174028
2598	0.0170377
2610	0.0162467
2622	0.0160641
2634	0.0155773
2646	0.0153948
2658	0.0149689
2670	0.0151514
2682	0.0157599
2694	0.017342
2706	0.0194108
2718	0.0208712
2730	0.0220273
2742	0.0224533
2754	0.0232443
2766	0.0231835
2778	0.0231835
2790	0.023366
2802	0.0240962
2814	0.0265302
2826	0.0324325
2838	0.0438721
2850	0.0665688
2862	0.0943159
2874	0.136789
2886	0.216379
2898	0.212485
2910	0.164475
2922	0.195812
2934	0.293414
2946	0.337347
2958	0.269987
2970	0.175306
2982	0.0934641
2994	0.0598754
3006	0.059632
3018	0.0921254
3030	0.144516
3042	0.151271
3054	0.129365
3066	0.140987
3078	0.148167
3090	0.106364
3102	0.0665688
3114	0.0420467
3126	0.0329802
3138	0.0291467
3150	0.0306679
3162	0.033832
3174	0.0365094
3186	0.0396127
3198	0.0424118
3210	0.0452108
3222	0.0478882
3234	0.0522084
3246	0.0552509
3258	0.0593278
3270	0.0617617
3282	0.064865
3294	0.06809
3306	0.0712542
3318	0.0731405
3330	0.0760612
3342	0.0791645
3354	0.0847627
3366	0.0921254
3378	0.101131
3390	0.117439
3402	0.147133
3414	0.179505
3426	0.18918
3438	0.189971
3450	0.214554
3462	0.256844
3474	0.257026
3486	0.21504
3498	0.173846
3510	0.151088
3522	0.133868
3534	0.111475
3546	0.0918211
3558	0.0756353
3570	0.065291
3582	0.0558594
3594	0.0506872
3606	0.0460627
3618	0.0528778
3630	0.0770957
3642	0.158451
3654	0.211998
3666	0.146281
3678	0.0826329
3690	0.0326759
3702	0.0148472
3714	0.0148472
3726	0.0148472
3738	0.0148472
3750	0.0148472
3762	0.0148472
3774	0.0148472
3786	0.0148472
3798	0.0148472
3810	0.0148472
3822	0.0148472
3834	0.0148472
3846	0.0148472
3858	0.0148472
3870	0.0148472
3882	0.0148472
3894	0.0148472
3906	0.0148472
3918	0.0148472
3930	0.0148472
3942	0.0148472
3954	0.0148472
3966	0.0148472
