Infrared Spectrum: Benzene, 1-chloro-4-nitro-2-(trifluoromethyl)-
Formula: C 7 H 3 Cl F 3 N O 2
CAS: 777-37-7
Origin: Sadtler Research Labs Under US-EPA Contract
1/CM	ABSORBANCE
450	0.0250771
462	0.0159832
474	0.00778491
486	0.00847384
498	0.0127452
510	0.0115051
522	0.0220458
534	0.0564923
546	0.00682041
558	0.014192
570	0.00806048
582	0.00978281
594	0.014812
606	0.0176366
618	0.0288662
630	0.00902498
642	0.00654484
654	0.0234925
666	0.0710976
678	0.00992059
690	0.0196345
702	0.00957613
714	0.0110918
726	0.0516009
738	0.0618659
750	0.0338954
762	0.00716487
774	0.00530476
786	0.0276261
798	0.0408535
810	0.0132963
822	0.00998949
834	0.0372022
846	0.0298996
858	0.00902498
870	0.00806048
882	0.0387868
894	0.0646905
906	0.0166721
918	0.0482251
930	0.0304507
942	0.00468472
954	0.00564923
966	0.00530476
978	0.00564923
990	0.00930056
1002	0.00613148
1014	0.00730266
1026	0.0272816
1038	0.112847
1050	0.0691686
1062	0.0233547
1074	0.014812
1086	0.020599
1098	0.0303818
1110	0.101686
1122	0.300167
1134	0.118358
1146	0.0813626
1158	0.184151
1170	0.555553
1182	0.529925
1194	0.234167
1206	0.0639327
1218	0.036031
1230	0.0211502
1242	0.0363755
1254	0.0815693
1266	0.045745
1278	0.218184
1290	0.228518
1302	0.351699
1314	0.447736
1326	0.1506
1338	0.142953
1350	0.278397
1362	0.214464
1374	0.0391312
1386	0.0205301
1398	0.0353421
1410	0.109953
1422	0.0746111
1434	0.0387179
1446	0.0349976
1458	0.034102
1470	0.0975525
1482	0.0630371
1494	0.0273505
1506	0.0368578
1518	0.026386
1530	0.0385801
1542	0.162174
1554	0.293071
1566	0.108506
1578	0.0660684
1590	0.126074
1602	0.0751623
1614	0.116636
1626	0.0926611
1638	0.0172921
1650	0.0117807
1662	0.00998949
1674	0.00957613
1686	0.00564923
1698	0.00420247
1710	0.00351354
1722	0.0029624
1734	0.00316908
1746	0.00358244
1758	0.00378912
1770	0.00358244
1782	0.00282461
1794	0.0039269
1806	0.00413358
1818	0.00268683
1830	0.00468472
1842	0.00709598
1854	0.0039269
1866	0.00241126
1878	0.00248015
1890	0.00303129
1902	0.00351354
1914	0.00365133
1926	0.00551144
1938	0.00461583
1950	0.00268683
1962	0.00241126
1974	0.001929
1986	0.00186011
1998	0.0019979
2010	0.0019979
2022	0.00165343
2034	0.00117118
2046	0.00144675
2058	0.000964502
2070	0.00213568
2082	0.00130897
2094	0.00227347
2106	0.0029624
2118	0.00248015
2130	0.00206679
2142	0.00254904
2154	0.00282461
2166	0.00248015
2178	0.00241126
2190	0.00282461
2202	0.00316908
2214	0.0029624
2226	0.00351354
2238	0.00351354
2250	0.00344465
2262	0.00365133
2274	0.00330686
2286	0.00399579
2298	0.00358244
2310	0.00227347
2322	0.000757823
2334	0.000757823
2346	0.00303129
2358	0.000964502
2370	0.00227347
2382	0.00564923
2394	0.00482251
2406	0.00406469
2418	0.0039269
2430	0.00378912
2442	0.00482251
2454	0.00427137
2466	0.00502919
2478	0.0049603
2490	0.0039269
2502	0.00399579
2514	0.00406469
2526	0.00399579
2538	0.00413358
2550	0.00289351
2562	0.00351354
2574	0.00372022
2586	0.00406469
2598	0.00447805
2610	0.0049603
2622	0.00523587
2634	0.00544255
2646	0.00482251
2658	0.00654484
2670	0.00461583
2682	0.00454694
2694	0.00509808
2706	0.00537365
2718	0.00695819
2730	0.00516698
2742	0.00289351
2754	0.00337576
2766	0.00413358
2778	0.0029624
2790	0.00385801
2802	0.00351354
2814	0.0029624
2826	0.00406469
2838	0.00406469
2850	0.00420247
2862	0.00571812
2874	0.00647594
2886	0.00854273
2898	0.00943834
2910	0.00771602
2922	0.00585591
2934	0.00613148
2946	0.00620037
2958	0.00454694
2970	0.00447805
2982	0.00378912
2994	0.00440915
3006	0.00358244
3018	0.00365133
3030	0.00475362
3042	0.00351354
3054	0.00447805
3066	0.00351354
3078	0.00378912
3090	0.0107473
3102	0.0208057
3114	0.0130897
3126	0.010954
3138	0.00427137
3150	0.00310019
3162	0.00310019
3174	0.00427137
3186	0.00351354
3198	0.00289351
3210	0.00406469
3222	0.00385801
3234	0.00447805
3246	0.00440915
3258	0.0019979
3270	0.00303129
3282	0.000826716
3294	0.00344465
3306	0.00289351
3318	0.00186011
3330	0.00310019
3342	0.001929
3354	0.00282461
3366	0.00268683
3378	0.00234236
3390	0.00186011
3402	0.00234236
3414	0.00165343
3426	0.00289351
3438	0.00172233
3450	0.00413358
3462	0.00310019
3474	0.00282461
3486	0.00261793
3498	0.00151565
3510	0.00124007
3522	0.00268683
3534	0.00303129
3546	0.00337576
3558	0.00261793
3570	0.00268683
3582	0.00213568
3594	0.00261793
3606	0.00420247
3618	0.0029624
3630	0.0039269
3642	0.00420247
3654	0.00434026
3666	0.00303129
3678	0.00351354
3690	0.00599369
3702	0.00365133
3714	0.00420247
3726	0.00330686
3738	0.0029624
3750	0.00509808
3762	0.0039269
3774	0.00558033
3786	0.00654484
3798	0.00427137
3810	0.00206679
3822	0.00275572
3834	0.0048914
3846	0.00482251
3858	0.00716487
3870	0.00289351
3882	0.00434026
3894	0.0010334
3906	0.00771602
3918	0.00365133
3930	0.00110229
3942	0.00289351
3954	0.000551144
3966	0.00620037
