Infrared Spectrum: Benzoic acid, 2-amino-, cyclohexyl ester
Formula: C 13 H 17 N O 2
CAS: 7779-16-0
Origin: Sadtler Research Labs Under US-EPA Contract
1/CM	ABSORBANCE
450	0.00574324
462	0.0267237
474	0.0432501
486	0.0334046
498	0.0450083
510	0.0595422
522	0.0748966
534	0.0502827
546	0.0402027
558	0.0434845
570	0.0315292
582	0.0398511
594	0.0344594
606	0.0249655
618	0.0230902
630	0.020746
642	0.022973
654	0.0230902
666	0.0440706
678	0.0451255
690	0.0380929
702	0.065051
714	0.0250827
726	0.0176986
738	0.0732556
750	0.18226
762	0.0385618
774	0.0133618
786	0.00492278
798	0.0109004
810	0.01008
822	0.0158232
834	0.0227385
846	0.0284818
858	0.0264892
870	0.0111349
882	0.0145339
894	0.0237934
906	0.0175813
918	0.0248483
930	0.0527441
942	0.0240278
954	0.0111349
966	0.0012893
978	0.00152372
990	0.00503999
1002	0.0240278
1014	0.0658715
1026	0.0898993
1038	0.109239
1050	0.0475869
1062	0.095877
1074	0.160811
1086	0.184253
1098	0.361941
1110	0.498724
1122	0.188941
1134	0.0675124
1146	0.0673952
1158	0.295601
1170	0.0920091
1182	0.0316464
1194	0.0275441
1206	0.0322325
1218	0.0624724
1230	0.233246
1242	0.924662
1254	0.689658
1266	0.183315
1278	0.205702
1290	0.521932
1302	0.180385
1314	0.146863
1326	0.159639
1338	0.0959942
1350	0.0566119
1362	0.0352799
1374	0.0302399
1386	0.0155888
1398	0.00879067
1410	0.00562603
1422	0.00668091
1434	0.0162921
1446	0.0542678
1458	0.128578
1470	0.0649338
1482	0.0719663
1494	0.090837
1506	0.0378585
1518	0.0145339
1530	0.0150028
1542	0.0198083
1554	0.0454771
1566	0.100331
1578	0.0927123
1590	0.202537
1602	0.24567
1614	0.30826
1626	0.281536
1638	0.0631757
1650	0.0264892
1662	0.026372
1674	0.0309432
1686	0.0883756
1698	0.413513
1710	0.423359
1722	0.13186
1734	0.0752482
1746	0.0250827
1758	0.0144167
1770	0.00972835
1782	0.00773579
1794	0.00797021
1806	0.00421952
1818	0.00304743
1830	0
1842	0
1854	0.00105488
1866	0.000586045
1878	0.000703254
1890	0.00316464
1902	0.00480557
1914	0.0105488
1926	0.00586045
1938	0.00550882
1950	0.00152372
1962	0.00105488
1974	0.000937672
1986	0.00140651
1998	0.00246139
2010	0.00234418
2022	0.00234418
2034	0.00175813
2046	0.000703254
2058	0.00117209
2070	0.00117209
2082	0.00175813
2094	0.00234418
2106	0.00281302
2118	0.00339906
2130	0.00328185
2142	0.00398511
2154	0.00421952
2166	0.00410231
2178	0.00363348
2190	0.0038679
2202	0.00293022
2214	0.00304743
2226	0.00304743
2238	0.00316464
2250	0.00234418
2262	0.00316464
2274	0.00304743
2286	0.0025786
2298	0.00187534
2310	0.000820463
2322	0.00105488
2334	0.00199255
2346	0.00105488
2358	0.00187534
2370	0.00421952
2382	0.00480557
2394	0.00562603
2406	0.00480557
2418	0.0038679
2430	0.00293022
2442	0.00339906
2454	0.00281302
2466	0.00222697
2478	0.00351627
2490	0.00410231
2502	0.00351627
2514	0.00316464
2526	0.0038679
2538	0.00398511
2550	0.0025786
2562	0.00199255
2574	0.00187534
2586	0.00433673
2598	0.00621208
2610	0.00550882
2622	0.0038679
2634	0.00398511
2646	0.00668091
2658	0.00855626
2670	0.01008
2682	0.0065637
2694	0.00586045
2706	0.00480557
2718	0.00574324
2730	0.00621208
2742	0.00562603
2754	0.00445394
2766	0.00539161
2778	0.00703254
2790	0.007853
2802	0.00984556
2814	0.0109004
2826	0.0107832
2838	0.0138307
2850	0.0273097
2862	0.122249
2874	0.144519
2886	0.0520408
2898	0.0406715
2910	0.062824
2922	0.115685
2934	0.271808
2946	0.604916
2958	0.238403
2970	0.0778268
2982	0.0307088
2994	0.0171125
3006	0.0148855
3018	0.0147683
3030	0.0311776
3042	0.0363348
3054	0.0398511
3066	0.0434845
3078	0.0321153
3090	0.0418436
3102	0.0144167
3114	0.007853
3126	0.00574324
3138	0.00363348
3150	0.00468836
3162	0.00703254
3174	0.00714975
3186	0.00586045
3198	0.00363348
3210	0.00222697
3222	0.00152372
3234	0.00457115
3246	0.00691533
3258	0.00843905
3270	0.00562603
3282	0.00597766
3294	0.00808742
3306	0.00703254
3318	0.00679812
3330	0.00832184
3342	0.00843905
3354	0.0123069
3366	0.0254344
3378	0.0963458
3390	0.142057
3402	0.0507515
3414	0.0188706
3426	0.0218009
3438	0.00890788
3450	0.00750138
3462	0.00867347
3474	0.0137135
3486	0.0195739
3498	0.0363348
3510	0.0777096
3522	0.0990416
3534	0.0423124
3546	0.0139479
3558	0.01008
3570	0.00457115
3582	0.00820463
3594	0.00574324
3606	0.0065637
3618	0.0064465
3630	0.00586045
3642	0.00820463
3654	0.0065637
3666	0.00867347
3678	0.00984556
3690	0.0119553
3702	0.0113693
3714	0.00996277
3726	0.00761858
3738	0.0103144
3750	0.00925951
3762	0.00820463
3774	0.00902509
3786	0.00679812
3798	0.00808742
3810	0.00761858
3822	0.00972835
3834	0.00843905
3846	0.00691533
3858	0.00410231
3870	0.00433673
3882	0.00925951
3894	0.00843905
3906	0.00843905
3918	0.00726696
3930	0.00808742
3942	0.00961114
3954	0.00879067
3966	0.00562603
