Infrared Spectrum: 2-Propenoic acid, 3-phenyl-, cyclohexyl ester
Formula: C 15 H 18 O 2
CAS: 7779-17-1
Origin: Sadtler Research Labs Under US-EPA Contract
1/CM	ABSORBANCE
450	0
462	0.00286623
474	0.0138031
486	0.01501
498	0.00859868
510	0.00859868
522	0.00467647
534	0.00452562
546	0.00460105
558	0.0293411
570	0.0219493
582	0.0138031
594	0.0162922
606	0.00920209
618	0.00890039
630	0.00595873
642	0.00844782
654	0.00988094
666	0.0170465
678	0.0340176
690	0.0558914
702	0.0512904
714	0.0376381
726	0.0266257
738	0.0214967
750	0.0352998
762	0.0702225
774	0.0421637
786	0.0147837
798	0.0147837
810	0.0140294
822	0.0165185
834	0.0174236
846	0.0196864
858	0.0251172
870	0.0283606
882	0.0236841
894	0.0322828
906	0.0316793
918	0.0358278
930	0.0497064
942	0.0395992
954	0.0275309
966	0.0539303
978	0.108087
990	0.0943592
1002	0.0587576
1014	0.0936803
1026	0.115403
1038	0.131846
1050	0.119854
1062	0.0451053
1074	0.036205
1086	0.0310005
1098	0.0380152
1110	0.0465385
1122	0.103486
1134	0.0780669
1146	0.0865148
1158	0.214967
1170	0.75427
1182	0.252605
1194	0.198147
1206	0.166392
1218	0.0791984
1230	0.117214
1242	0.185324
1254	0.27463
1266	0.303443
1278	0.214816
1290	0.155229
1302	0.220322
1314	0.197468
1326	0.159
1338	0.0994882
1350	0.0595119
1362	0.0500835
1374	0.0475944
1386	0.0310759
1398	0.0211196
1410	0.0184042
1422	0.0199882
1434	0.0247401
1446	0.0548354
1458	0.0767093
1470	0.0333387
1482	0.0179516
1494	0.0399009
1506	0.0239104
1518	0.013426
1530	0.0117666
1542	0.0125209
1554	0.0101072
1566	0.0122946
1578	0.025796
1590	0.0174236
1602	0.0177253
1614	0.0207424
1626	0.0375626
1638	0.133204
1650	0.108011
1662	0.0257206
1674	0.0229298
1686	0.0273046
1698	0.0331879
1710	0.0575508
1722	0.229524
1734	0.486127
1746	0.167976
1758	0.0627553
1770	0.0407306
1782	0.026324
1794	0.0208179
1806	0.0131243
1818	0.0110878
1830	0.0115403
1842	0.0119175
1854	0.00942837
1866	0.00905124
1878	0.00935295
1890	0.0100318
1902	0.00724099
1914	0.00618501
1926	0.00701471
1938	0.00859868
1950	0.0106352
1962	0.00988094
1974	0.00724099
1986	0.00565702
1998	0.00588331
2010	0.00497818
2022	0.00512904
2034	0.00497818
2046	0.00445019
2058	0.00452562
2070	0.00452562
2082	0.00181025
2094	0.0036205
2106	0.00610959
2118	0.00580788
2130	0.00626044
2142	0.00678843
2154	0.00709014
2166	0.00641129
2178	0.00656215
2190	0.00701471
2202	0.00724099
2214	0.006713
2226	0.0075427
2238	0.00822154
2250	0.00829697
2262	0.00784441
2274	0.00859868
2286	0.00807069
2298	0.00610959
2310	0.00263994
2322	0.00218738
2334	0.00497818
2346	0.0125209
2358	0.00173482
2370	0.0203653
2382	0.0159151
2394	0.00912667
2406	0.00791984
2418	0.00859868
2430	0.0095038
2442	0.00927752
2454	0.00874953
2466	0.00920209
2478	0.00912667
2490	0.00973008
2502	0.0104089
2514	0.0101072
2526	0.0101826
2538	0.00905124
2550	0.00905124
2562	0.00973008
2574	0.0102581
2586	0.0109369
2598	0.011842
2610	0.0128226
2622	0.0106352
2634	0.0113895
2646	0.0131997
2658	0.0141048
2670	0.0112386
2682	0.011314
2694	0.0116158
2706	0.0110878
2718	0.0104089
2730	0.00980551
2742	0.00935295
2754	0.00980551
2766	0.0101072
2778	0.0104089
2790	0.0125209
2802	0.0135769
2814	0.0136523
2826	0.015538
2838	0.0189322
2850	0.026852
2862	0.10062
2874	0.120608
2886	0.0497818
2898	0.0399009
2910	0.0595873
2922	0.101449
2934	0.217682
2946	0.491633
2958	0.197091
2970	0.0693928
2982	0.0304725
2994	0.0181025
3006	0.0153871
3018	0.0182533
3030	0.0353753
3042	0.0438231
3054	0.0308496
3066	0.0517429
3078	0.0573999
3090	0.0378644
3102	0.0245138
3114	0.0187059
3126	0.0095038
3138	0.00965466
3150	0.00807069
3162	0.00746727
3174	0.00791984
3186	0.00656215
3198	0.00618501
3210	0.00452562
3222	0.0039222
3234	0.00226281
3246	0.00452562
3258	0.00543074
3270	0.00573245
3282	0.00437477
3294	0.00407306
3306	0.0047519
3318	0.0036205
3330	0.00377135
3342	0.00301708
3354	0.0039222
3366	0.00384678
3378	0.00505361
3390	0.0036205
3402	0.00354507
3414	0.00512904
3426	0.00543074
3438	0.00460105
3450	0.0075427
3462	0.00482733
3474	0.0036205
3486	0.00331879
3498	0.00445019
3510	0.00482733
3522	0.00490275
3534	0.00309251
3546	0.00467647
3558	0.00437477
3570	0.00565702
3582	0.0116912
3594	0.00791984
3606	0.00520446
3618	0.00580788
3630	0.00580788
3642	0.00580788
3654	0.00814612
3666	0.00769355
3678	0.00791984
3690	0.00829697
3702	0.00784441
3714	0.00799526
3726	0.00761813
3738	0.00807069
3750	0.0103335
3762	0.00633587
3774	0.00852325
3786	0.00588331
3798	0.00490275
3810	0.00942837
3822	0.00807069
3834	0.00709014
3846	0.00724099
3858	0.00769355
3870	0.00505361
3882	0.00452562
3894	0.00799526
3906	0.00384678
3918	0.006713
3930	0.00588331
3942	0.00309251
3954	0.00776898
3966	0.00573245
