Infrared Spectrum: Benzenesulfonic acid, 4-methyl-, butyl ester
Formula: C 11 H 16 O 3 S
CAS: 778-28-9
Origin: Sadtler Research Labs Under US-EPA Contract
1/CM	ABSORBANCE
450	0.00673067
462	0.013387
474	0.0326121
486	0.0163247
498	0.00706534
510	0.0247659
522	0.023985
534	0.0226835
546	0.0642574
558	0.128143
570	0.126693
582	0.0559277
594	0.010598
606	0.0168081
618	0.0119367
630	0.016399
642	0.0293769
654	0.0528041
666	0.108583
678	0.136807
690	0.0837057
702	0.0332443
714	0.0363679
726	0.0642574
738	0.0688685
750	0.069575
762	0.0736655
774	0.0918122
786	0.0756735
798	0.0787599
810	0.0979107
822	0.0911429
834	0.0372604
846	0.0192995
858	0.02339
870	0.0548122
882	0.0771981
894	0.0332815
906	0.0262161
918	0.0322403
930	0.0605016
942	0.123681
954	0.143761
966	0.120631
978	0.085565
990	0.077979
1002	0.103675
1014	0.116838
1026	0.0781278
1038	0.0705418
1050	0.0484162
1062	0.0591257
1074	0.0471147
1086	0.0362192
1098	0.0689428
1110	0.0717318
1122	0.0849328
1134	0.0370744
1146	0.034992
1158	0.0571177
1170	0.102373
1182	0.270119
1194	0.355907
1206	0.173993
1218	0.133981
1230	0.0908082
1242	0.0555187
1254	0.0363679
1266	0.0214935
1278	0.0273689
1290	0.0264392
1302	0.0335046
1314	0.0280011
1326	0.0225347
1338	0.0266624
1350	0.0384131
1362	0.0712856
1374	0.0998444
1386	0.131676
1398	0.136064
1410	0.0568574
1422	0.0327237
1434	0.0356242
1446	0.048974
1458	0.0517257
1470	0.0530272
1482	0.0364051
1494	0.0343599
1506	0.0207498
1518	0.0116764
1530	0.0110814
1542	0.00409046
1554	0.00647036
1566	0.00881308
1578	0.0136101
1590	0.0154694
1602	0.0270342
1614	0.0222744
1626	0.013201
1638	0.0148
1650	0.0139448
1662	0.0110442
1674	0.00907338
1686	0.000632162
1698	0.00260302
1710	0.00650755
1722	0.00323518
1734	0.00100402
1746	0.00587539
1758	0.00308644
1770	0.00375579
1782	0.00327237
1794	0.00405327
1806	0.00174774
1818	0.00037186
1830	0.0021196
1842	0.0023799
1854	0.00264021
1866	0.00226835
1878	0.00323518
1890	0.00330955
1902	0.00475981
1914	0.00591257
1926	0.0050573
1938	0.00308644
1950	0.00226835
1962	0.00189649
1974	0.00252865
1986	0.00215679
1998	0.0021196
2010	0.00167337
2022	0.00189649
2034	0.0018593
2046	0.00189649
2058	0.00193367
2070	0.00148744
2082	0.00145025
2094	0.00171056
2106	0.00174774
2118	0.00204523
2130	0.00156181
2142	0.00104121
2154	0.001599
2166	0.00197086
2178	0.0021196
2190	0.00223116
2202	0.00174774
2214	0.0018593
2226	0.00126432
2238	0.00171056
2250	0.00171056
2262	0.00130151
2274	0.00118995
2286	0.00122714
2298	0.00260302
2310	0.00453669
2322	0.0071769
2334	0.00836685
2346	0.0166221
2358	0.00784625
2370	0.0111558
2382	0.0039789
2394	0.00163618
2406	0.000966836
2418	0.000892464
2430	0.000966836
2442	0.000818092
2454	0.000446232
2466	0.000297488
2478	0.000334674
2490	0.000632162
2502	0.000892464
2514	0.000780906
2526	0.00111558
2538	0.00137588
2550	0.00215679
2562	0.00245428
2574	0.00271458
2586	0.00264021
2598	0.00264021
2610	0.00278895
2622	0.00267739
2634	0.00327237
2646	0.00330955
2658	0.00383016
2670	0.0042392
2682	0.00420202
2694	0.00479699
2706	0.00516885
2718	0.00535478
2730	0.00628443
2742	0.00762313
2754	0.00825529
2766	0.00792062
2778	0.00851559
2790	0.0092965
2802	0.0108955
2814	0.012792
2826	0.0159528
2838	0.0214935
2850	0.0320543
2862	0.0471147
2874	0.0712484
2886	0.0942665
2898	0.0886142
2910	0.0856394
2922	0.100625
2934	0.128664
2946	0.163507
2958	0.179683
2970	0.21884
2982	0.177377
2994	0.0947127
3006	0.0559649
3018	0.03938
3030	0.0335046
3042	0.0331327
3054	0.0284473
3066	0.0205267
3078	0.0182955
3090	0.0138704
3102	0.0120483
3114	0.0100774
3126	0.00944524
3138	0.00814373
3150	0.00777187
3162	0.00777187
3174	0.00710253
3186	0.00814373
3198	0.00758594
3210	0.00799499
3222	0.00799499
3234	0.00792062
3246	0.00836685
3258	0.00810655
3270	0.00885027
3282	0.00911057
3294	0.00881308
3306	0.00907338
3318	0.00881308
3330	0.00963117
3342	0.00892464
3354	0.00858997
3366	0.00847841
3378	0.00925931
3390	0.00829248
3402	0.00899901
3414	0.00810655
3426	0.00866434
3438	0.00892464
3450	0.00810655
3462	0.0092965
3474	0.0104493
3486	0.00873871
3498	0.010003
3510	0.0087759
3522	0.00922213
3534	0.0102633
3546	0.00963117
3558	0.00836685
3570	0.00892464
3582	0.0111186
3594	0.00832966
3606	0.0130895
3618	0.00821811
3630	0.00844122
3642	0.0095568
3654	0.00606132
3666	0.0158041
3678	0.00386734
3690	0.00624725
3702	0.0134985
3714	0.010598
3726	0.011602
3738	0.00665629
3750	0.0129035
3762	0.0145769
3774	0.0121598
3786	0.0118623
3798	0.0129407
3810	0.0182955
3822	0.00654474
3834	0.0135357
3846	0.0176262
3858	0.00502011
3870	0.0109699
3882	0.0157297
3894	0.0136844
3906	0.0130523
3918	0.0167337
3930	0.0126061
3942	0.0151347
3954	0.0152463
3966	0.0161759
