Infrared Spectrum: 2-Propenoic acid, 3-phenyl-, 1-methylethyl ester
Formula: C 12 H 14 O 2
CAS: 7780-06-5
Origin: Sadtler Research Labs Under US-EPA Contract
1/CM	ABSORBANCE
450	0.0507608
462	0.043418
474	0.0470894
486	0.0403851
498	0.0411832
510	0.0276151
522	0.00734275
534	0.0183569
546	0.0167606
558	0.0143662
570	0.0936999
582	0.0365541
594	0.0397466
606	0.0169202
618	0.0031925
630	0.00399062
642	0.0145259
654	0.014047
666	0.0416621
678	0.086836
690	0.130094
702	0.126902
714	0.0913055
726	0.0501223
738	0.0596997
750	0.0917844
762	0.168404
774	0.118601
786	0.0403851
798	0.0228264
810	0.029371
822	0.0474086
834	0.0340001
846	0.0351175
858	0.0537936
870	0.0534744
882	0.0386292
894	0.0411832
906	0.0581035
918	0.102958
930	0.0450142
942	0.0438969
954	0.0571457
966	0.136
978	0.299137
990	0.315898
1002	0.146855
1014	0.0707139
1026	0.0531551
1038	0.0375119
1050	0.0411832
1062	0.061296
1074	0.0852397
1086	0.109343
1098	0.221719
1110	0.651589
1122	0.653664
1134	0.379109
1146	0.350377
1158	0.466903
1170	1.28722
1182	0.909703
1194	0.488772
1206	0.489729
1218	0.150048
1230	0.171756
1242	0.25524
1254	0.554378
1266	0.823825
1278	0.564753
1290	0.382781
1302	0.572894
1314	0.601946
1326	0.298339
1338	0.227466
1350	0.184846
1362	0.188677
1374	0.166648
1386	0.177822
1398	0.105352
1410	0.0539532
1422	0.044695
1434	0.0486856
1446	0.0984886
1458	0.120836
1470	0.088113
1482	0.0611364
1494	0.0978501
1506	0.0743852
1518	0.0368734
1530	0.0322442
1542	0.0325635
1554	0.0239437
1566	0.026817
1578	0.0598594
1590	0.0363945
1602	0.0328827
1614	0.0399062
1626	0.0954557
1638	0.371767
1650	0.348461
1662	0.0641692
1674	0.0633711
1686	0.0632115
1698	0.0799721
1710	0.143822
1722	0.595242
1734	1.21634
1746	0.502659
1758	0.117324
1770	0.0635307
1782	0.0456527
1794	0.0499626
1806	0.0335212
1818	0.0249015
1830	0.0253804
1842	0.0209109
1854	0.0142066
1866	0.0173991
1878	0.0170799
1890	0.0175587
1902	0.00941787
1914	0.00734275
1926	0.010216
1938	0.0151644
1950	0.0205916
1962	0.0161221
1974	0.010216
1986	0.0083005
1998	0.00782162
2010	0.00590612
2022	0.006385
2034	0.00415025
2046	0.00287325
2058	0.00239437
2070	0.0031925
2082	0.00494837
2094	0.00526762
2106	0.003831
2118	0.003831
2130	0.003831
2142	0.0057465
2154	0.00590612
2166	0.00494837
2178	0.00303287
2190	0.00271362
2202	0.00223475
2214	0.00239437
2226	0.00351175
2238	0.00415025
2250	0.00430987
2262	0.00415025
2274	0.00430987
2286	0.0044695
2298	0.003831
2310	0.00351175
2322	0.00606575
2334	0.00622538
2346	0.00606575
2358	0.00415025
2370	0.0031925
2382	0.00095775
2394	0.00111737
2406	0.000478875
2418	0.00031925
2430	0.000478875
2442	0.00111737
2454	0.00207512
2466	0.00239437
2478	0.0019155
2490	0.00143662
2502	0.00223475
2514	0.00271362
2526	0.00271362
2538	0.0019155
2550	0.00159625
2562	0.001277
2574	0.00159625
2586	0.00207512
2598	0.00223475
2610	0.00287325
2622	0.003831
2634	0.00399062
2646	0.00239437
2658	0.00223475
2670	0.00207512
2682	0.00287325
2694	0.00335212
2706	0.0044695
2718	0.00542725
2730	0.00558687
2742	0.00814087
2754	0.00606575
2766	0.00542725
2778	0.00686387
2790	0.00750237
2802	0.00877937
2814	0.0106949
2826	0.01277
2838	0.0150047
2850	0.0175587
2862	0.0210705
2874	0.0359156
2886	0.0622537
2898	0.0585824
2910	0.0592209
2922	0.0675214
2934	0.108066
2946	0.14909
2958	0.0973712
2970	0.0895496
2982	0.356123
2994	0.304086
3006	0.0933806
3018	0.0515589
3030	0.086836
3042	0.106629
3054	0.0665636
3066	0.120038
3078	0.143982
3090	0.0884322
3102	0.0544321
3114	0.0347982
3126	0.0118122
3138	0.00798125
3150	0.00909862
3162	0.00861975
3174	0.0070235
3186	0.0070235
3198	0.006385
3210	0.005108
3222	0.00351175
3234	0.00399062
3246	0.00287325
3258	0.00239437
3270	0.00095775
3282	0.0006385
3294	0.0019155
3306	0.00159625
3318	0.00159625
3330	0.0019155
3342	0.0019155
3354	0.00287325
3366	0.00430987
3378	0.00415025
3390	0.00271362
3402	0.00271362
3414	0.00303287
3426	0.00351175
3438	0.00846012
3450	0.0124508
3462	0.00670425
3474	0.00351175
3486	0.0019155
3498	0.00223475
3510	0.00143662
3522	0.00143662
3534	0.00175587
3546	0.00095775
3558	0.00143662
3570	0.00223475
3582	0.00223475
3594	0.00095775
3606	0.00239437
3618	0.00399062
3630	0.00287325
3642	0.0019155
3654	0.00303287
3666	0.00430987
3678	0.00143662
3690	0.001277
3702	0.00223475
3714	0.00223475
3726	0.001277
3738	0.00287325
3750	0.00430987
3762	0.002554
3774	0.002554
3786	0.0031925
3798	0.00175587
3810	0.00415025
3822	0.00143662
3834	0.00542725
3846	0.0031925
3858	0.00287325
3870	0.003831
3882	0.00335212
3894	0.00335212
3906	0.0031925
3918	0.005108
3930	0.00271362
3942	0.00351175
3954	0.00478875
3966	0.0044695
