Infrared Spectrum: Germane
Formula: Ge H 4
CAS: 7782-65-2
Origin: Sadtler Research Labs Under US-EPA Contract
1/CM	ABSORBANCE
450	0.0299118
462	0.0210916
474	0.0210916
486	0.0116963
498	0.0132302
510	0.00901187
522	0.00268439
534	0.00613574
546	0.00345136
558	0.00345136
570	0.0109293
582	0.00306787
594	0.00306787
606	0.00421832
618	0.00134219
630	0.00575226
642	0.005944
654	0.00575226
666	0.00862839
678	0.00383484
690	0.00651923
702	0.00939536
714	0.00345136
726	0.0162981
738	0.047552
750	0.106992
762	0.190208
774	0.265946
786	0.427968
798	0.544739
810	0.990539
822	0.210724
834	0.798414
846	1.12227
858	0.525181
870	0.130768
882	0.0366227
894	0.0180237
906	0.0139972
918	0.00920362
930	0.0251182
942	0.0644253
954	0.0228173
966	0.0176403
978	0.00786142
990	0.00882013
1002	0.0128467
1014	0.0103541
1026	0.0115045
1038	0.00479355
1050	0.00690271
1062	0.00421832
1074	0.00498529
1086	0.00498529
1098	0.00306787
1110	0.00210916
1122	0.00383484
1134	0.00287613
1146	0.00153394
1158	0.00325961
1170	0.00306787
1182	0.00153394
1194	0.00306787
1206	0.00249265
1218	0.00172568
1230	0.00249265
1242	0.00210916
1254	0.00268439
1266	0.00402658
1278	0.00249265
1290	0.00402658
1302	0.00306787
1314	0.00306787
1326	0.00383484
1338	0.00479355
1350	0.00249265
1362	0.00460181
1374	0.00325961
1386	0.00172568
1398	0.00402658
1410	0.00287613
1422	0.00268439
1434	0.00421832
1446	0.00210916
1458	0.00325961
1470	0.00325961
1482	0.00210916
1494	0.00345136
1506	0.00441007
1518	0.00325961
1530	0.00556052
1542	0.00115045
1554	0.00325961
1566	0.00383484
1578	0.00249265
1590	0.00383484
1602	0.00479355
1614	0.00325961
1626	0.00536878
1638	0.00306787
1650	0.00172568
1662	0.00556052
1674	0.00325961
1686	0.00421832
1698	0.00690271
1710	0.00498529
1722	0.00536878
1734	0.005944
1746	0.00479355
1758	0.00575226
1770	0.00575226
1782	0.00460181
1794	0.00690271
1806	0.00441007
1818	0.00268439
1830	0.00556052
1842	0.00210916
1854	0.00421832
1866	0.00690271
1878	0.00191742
1890	0.00441007
1902	0.00479355
1914	0.000383484
1926	0.00901187
1938	0.00786142
1950	0.0168733
1962	0.0308705
1974	0.0419915
1986	0.101048
1998	0.0945288
2010	0.259043
2022	0.164898
2034	0.451744
2046	0.188674
2058	0.464399
2070	0.180046
2082	0.246197
2094	0.191742
2106	1.65358
2118	0.0753546
2130	0.142464
2142	0.206698
2154	0.287805
2166	0.316566
2178	0.378882
2190	0.255784
2202	0.196536
2214	0.180046
2226	0.0724785
2238	0.0521538
2250	0.0266521
2262	0.00843665
2274	0.00939536
2286	0.00690271
2298	0.00095871
2310	0.011888
2322	0.00766968
2334	0.00498529
2346	0.0207081
2358	0.00690271
2370	0.00556052
2382	0.0101623
2394	0.00153394
2406	0.00536878
2418	0.00690271
2430	0.00325961
2442	0.00747794
2454	0.00575226
2466	0.00172568
2478	0.005944
2490	0.00325961
2502	0.00441007
2514	0.0072862
2526	0.00345136
2538	0.00536878
2550	0.00613574
2562	0.00210916
2574	0.00536878
2586	0.00536878
2598	0.00325961
2610	0.00747794
2622	0.00479355
2634	0.00325961
2646	0.00632749
2658	0.00325961
2670	0.00460181
2682	0.00709445
2694	0.00402658
2706	0.00613574
2718	0.00632749
2730	0.00268439
2742	0.00556052
2754	0.00479355
2766	0.00441007
2778	0.00709445
2790	0.00498529
2802	0.00479355
2814	0.00651923
2826	0.00460181
2838	0.00632749
2850	0.00709445
2862	0.00575226
2874	0.00843665
2886	0.00747794
2898	0.005944
2910	0.00862839
2922	0.0113128
2934	0.00651923
2946	0.0134219
2958	0.0107376
2970	0.0109293
2982	0.011888
2994	0.0072862
3006	0.0101623
3018	0.00977884
3030	0.00862839
3042	0.0113128
3054	0.0072862
3066	0.00536878
3078	0.0072862
3090	0.00460181
3102	0.00556052
3114	0.00709445
3126	0.00479355
3138	0.00632749
3150	0.00575226
3162	0.00345136
3174	0.00556052
3186	0.00536878
3198	0.00383484
3210	0.00690271
3222	0.00536878
3234	0.00441007
3246	0.00613574
3258	0.00345136
3270	0.00402658
3282	0.00632749
3294	0.00402658
3306	0.00632749
3318	0.00651923
3330	0.00345136
3342	0.00613574
3354	0.00345136
3366	0.00402658
3378	0.00651923
3390	0.00498529
3402	0.00498529
3414	0.00632749
3426	0.00249265
3438	0.00421832
3450	0.00556052
3462	0.00306787
3474	0.00613574
3486	0.00498529
3498	0.00268439
3510	0.00709445
3522	0.00345136
3534	0.00345136
3546	0.00709445
3558	0.00441007
3570	0.00651923
3582	0.00575226
3594	0.00210916
3606	0.005944
3618	0.00498529
3630	0.00268439
3642	0.0072862
3654	0.00536878
3666	0.00287613
3678	0.00498529
3690	0.00153394
3702	0.00287613
3714	0.00460181
3726	0.00325961
3738	0.00709445
3750	0.00345136
3762	0.00172568
3774	0.00575226
3786	0.00325961
3798	0.000383484
3810	0.00805316
3822	0.00268439
3834	0.00383484
3846	0.00747794
3858	0.000383484
3870	0.00191742
3882	0.00460181
3894	0.00172568
3906	0.00786142
3918	0.00536878
3930	0.00287613
3942	0.00651923
3954	0.00191742
3966	0.00325961
