Infrared Spectrum: Deuterium oxide
Formula: D 2 O
CAS: 7789-20-0
Origin: Sadtler Research Labs Under US-EPA Contract
1/CM	ABSORBANCE
450	0.0101063
462	0.0283071
474	0.0260081
486	0.0288819
498	0.0211226
510	0.0184882
522	0.0199252
534	0.0112558
546	0.0156623
558	0.0154707
570	0.00771142
582	0.0157102
594	0.00933991
606	0.00809459
618	0.0148481
630	0.00579554
642	0.00723245
654	0.0100584
666	0.00565185
678	0.00871725
690	0.00972309
702	0.00608292
714	0.0095794
726	0.0064182
738	0.00368807
750	0.00866936
762	0.0047897
774	0.00622661
786	0.00977099
798	0.00560395
810	0.00699296
822	0.00713665
834	0.00215536
846	0.00890884
858	0.00732824
870	0.00569974
882	0.0113995
894	0.0079509
906	0.00689717
918	0.0149918
930	0.0102021
942	0.0213621
954	0.0329531
966	0.0387008
978	0.0655231
990	0.0684927
1002	0.0642778
1014	0.074384
1026	0.0878431
1038	0.121994
1050	0.0606855
1062	0.104559
1074	0.196952
1086	0.242407
1098	0.21228
1110	0.329004
1122	0.396827
1134	0.284364
1146	0.311666
1158	0.278425
1170	0.0807543
1182	0.0456458
1194	0.138422
1206	0.203562
1218	0.243939
1230	0.294471
1242	0.371872
1254	0.337913
1266	0.145128
1278	0.190822
1290	0.266499
1302	0.165532
1314	0.312911
1326	0.293034
1338	0.246095
1350	0.28197
1362	0.227942
1374	0.187996
1386	0.126735
1398	0.0711749
1410	0.123574
1422	0.21841
1434	0.179135
1446	0.052543
1458	0.154516
1470	0.199587
1482	0.116581
1494	0.105565
1506	0.0645173
1518	0.104415
1530	0.0391318
1542	0.1173
1554	0
1566	0.0493339
1578	0.0562311
1590	0.0324742
1602	0.0532615
1614	0.0242359
1626	0.0298398
1638	0.0300793
1650	0.0272055
1662	0.0190151
1674	0.0257686
1686	0.0258644
1698	0.0360185
1710	0.0134112
1722	0.0134591
1734	0.0224637
1746	0.00838197
1758	0.0132196
1770	0.0152791
1782	0.00565185
1794	0.00699296
1806	0.00560395
1818	0.00426283
1830	0.0080467
1842	0.007903
1854	0.00210747
1866	0.00708876
1878	0.00411914
1890	0.00445442
1902	0.00455021
1914	0.00335279
1926	0.00340069
1938	0.00531657
1950	0.00301751
1962	0.00426283
1974	0.00440652
1986	0.00229906
1998	0.00464601
2010	0.00383176
2022	0.00364017
2034	0.00517288
2046	0.00435863
2058	0.00359227
2070	0.0048376
2082	0.00335279
2094	0.00407125
2106	0.00502919
2118	0.00392755
2130	0.00493339
2142	0.00517288
2154	0.00354438
2166	0.00507708
2178	0.00536446
2190	0.00507708
2202	0.00737614
2214	0.00603502
2226	0.00780721
2238	0.00598713
2250	0.00431073
2262	0.00292172
2274	0.0047897
2286	0.00455021
2298	0.00981888
2310	0.0123095
2322	0.0102979
2334	0.0108726
2346	0.0127406
2358	0.0115911
2370	0.0167161
2382	0.0111121
2394	0.00819039
2406	0.01207
2418	0.00857356
2430	0.00665768
2442	0.0117827
2454	0.0151833
2466	0.0163808
2478	0.0118785
2490	0.0125969
2502	0.0179614
2514	0.0250022
2526	0.0206436
2538	0.0217452
2550	0.0376949
2562	0.0407603
2574	0.0392755
2586	0.0538362
2598	0.0448316
2610	0.129082
2622	0.117539
2634	0.100536
2646	0.084634
2658	0.14872
2670	0.249974
2682	0.276414
2694	0.286424
2706	0.260177
2718	0.239293
2730	0.0924412
2742	0.130567
2754	0.192833
2766	0.286232
2778	0.455644
2790	0.207969
2802	0.130376
2814	0.17013
2826	0.147571
2838	0.250406
2850	0.300649
2862	0.217452
2874	0.21774
2886	0.169699
2898	0.145798
2910	0.0816644
2922	0.108247
2934	0.0446879
2946	0.0316599
2958	0.0300793
2970	0.0113516
2982	0.00842987
2994	0.0100105
3006	0.00349648
3018	0.00833408
3030	0.00929202
3042	0.00392755
3054	0.00737614
3066	0.00646609
3078	0.00402335
3090	0.00819039
3102	0.0079988
3114	0.00593923
3126	0.00890884
3138	0.00512498
3150	0.00522077
3162	0.00785511
3174	0.00455021
3186	0.00761562
3198	0.00866936
3210	0.0063224
3222	0.00828618
3234	0.00737614
3246	0.00598713
3258	0.00924412
3270	0.00775931
3282	0.00771142
3294	0.0109205
3306	0.00895674
3318	0.0096273
3330	0.0109205
3342	0.0096273
3354	0.0110642
3366	0.0120221
3378	0.0114474
3390	0.0137943
3402	0.012549
3414	0.0152791
3426	0.0211226
3438	0.0129322
3450	0.0183446
3462	0.0251459
3474	0.0177219
3486	0.0129801
3498	0.0259602
3510	0.0295524
3522	0.0370244
3534	0.0378386
3546	0.0265828
3558	0.0318994
3570	0.0510103
3582	0.072995
3594	0.118976
3606	0.101781
3618	0.0569495
3630	0.0512977
3642	0.0918185
3654	0.090669
3666	0.0865978
3678	0.0829576
3690	0.0835324
3702	0.166107
3714	0.0217452
3726	0.0435384
3738	0.0649004
3750	0.0742882
3762	0.102069
3774	0.115192
3786	0.109349
3798	0.111073
3810	0.0943092
3822	0.104942
3834	0.105373
3846	0.0619308
3858	0.0552252
3870	0.0369286
3882	0.0458853
3894	0.0540757
3906	0.0405209
3918	0.0189672
3930	0.0326179
3942	0.0220326
3954	0.0307978
3966	0.0630325
