Infrared Spectrum: Anthracene, 9-methyl-
Formula: C 15 H 12
CAS: 779-02-2
Origin: Sadtler Research Labs Under US-EPA Contract
1/CM	ABSORBANCE
450	0.114583
462	0.0213557
474	0.0254701
486	0.013682
498	0.013878
510	0.0304662
522	0.0495035
534	0.0631855
546	0.0187107
558	0.0209639
570	0.01378
582	0.0181883
594	0.0285723
606	0.0304662
618	0.00986151
630	0.0176332
642	0.0104493
654	0.0118534
666	0.0148902
678	0.0240007
690	0.035201
702	0.0582547
714	0.0902883
726	0.32654
738	0.10877
750	0.018874
762	0.0244905
774	0.0759859
786	0.0237721
798	0.0136494
810	0.0390868
822	0.041144
834	0.0617161
846	0.024915
858	0.0305641
870	0.0680836
882	0.0829412
894	0.0183515
906	0.0144984
918	0.0123759
930	0.0372909
942	0.0348092
954	0.0110371
966	0.0065308
978	0.00600834
990	0.022466
1002	0.0269722
1014	0.0209312
1026	0.0242946
1038	0.0262538
1050	0.0228251
1062	0.0202455
1074	0.036148
1086	0.0327846
1098	0.0245232
1110	0.0222374
1122	0.0247191
1134	0.0252742
1146	0.0253722
1158	0.0374215
1170	0.0288988
1182	0.025862
1194	0.0245558
1206	0.0192985
1218	0.0190699
1230	0.0209639
1242	0.0267436
1254	0.0281151
1266	0.0524423
1278	0.104721
1290	0.0785982
1302	0.134371
1314	0.123269
1326	0.0716429
1338	0.0435278
1350	0.0500586
1362	0.0259926
1374	0.0318377
1386	0.0514627
1398	0.0395113
1410	0.0393481
1422	0.0303682
1434	0.031903
1446	0.0384991
1458	0.0416992
1470	0.0407848
1482	0.0382378
1494	0.0265477
1506	0.0271681
1518	0.0284743
1530	0.0328173
1542	0.0236742
1554	0.0284416
1566	0.0294866
1578	0.0359521
1590	0.0587445
1602	0.0763124
1614	0.0347112
1626	0.0320336
1638	0.0210292
1650	0.0251762
1662	0.0445401
1674	0.0727531
1686	0.0971783
1698	0.0599201
1710	0.0241966
1722	0.018123
1734	0.0192006
1746	0.0178617
1758	0.0142045
1770	0.0161637
1782	0.0222047
1794	0.0235109
1806	0.0221068
1818	0.0117228
1830	0.00744511
1842	0.00770634
1854	0.0057471
1866	0.00558383
1878	0.00571445
1890	0.0102207
1902	0.0116575
1914	0.0126698
1926	0.0139433
1938	0.0170454
1950	0.00431033
1962	0.00398379
1974	0.00303682
1986	0.0020572
1998	0.00225313
2010	0.00199189
2022	0.00238374
2034	0.00173066
2046	0.00199189
2058	0.00176332
2070	0.00156739
2082	0.00179597
2094	0.00173066
2106	0.00143678
2118	0.00107758
2130	0.00111024
2142	0.000946966
2154	0.00117554
2166	0.00137147
2178	0.000946966
2190	0.00133881
2202	0.00127351
2214	0.00124085
2226	0.0012082
2238	0.00104493
2250	0.0016327
2262	0.00218782
2274	0.00218782
2286	0.00271028
2298	0.00493075
2310	0.00734715
2322	0.00835942
2334	0.00809819
2346	0.0065308
2358	0.00924108
2370	0.00577976
2382	0.00483279
2394	0.00257967
2406	0.00218782
2418	0.00173066
2430	0.00156739
2442	0.00114289
2454	0.000718388
2466	0.00186128
2478	0.00195924
2490	0.00202455
2502	0.00143678
2514	0.00195924
2526	0.00192659
2538	0.00231843
2550	0.00254701
2562	0.00160005
2574	0.00143678
2586	0.00176332
2598	0.00173066
2610	0.00176332
2622	0.00215516
2634	0.00225313
2646	0.00264497
2658	0.00179597
2670	0.00215516
2682	0.00254701
2694	0.00267763
2706	0.00336336
2718	0.00238374
2730	0.00306948
2742	0.00378786
2754	0.00333071
2766	0.00264497
2778	0.00306948
2790	0.0024817
2802	0.0028409
2814	0.00303682
2826	0.00506137
2838	0.00613895
2850	0.00914312
2862	0.0140412
2874	0.0201475
2886	0.0253722
2898	0.0240007
2910	0.025862
2922	0.0322622
2934	0.0432992
2946	0.0430706
2958	0.0340581
2970	0.025666
2982	0.0231517
2994	0.0294213
3006	0.0394134
3018	0.0469891
3030	0.0657325
3042	0.0877413
3054	0.133261
3066	0.168756
3078	0.129963
3090	0.117946
3102	0.0464993
3114	0.0173719
3126	0.00806554
3138	0.00587772
3150	0.00385317
3162	0.00457156
3174	0.00427767
3186	0.00378786
3198	0.00362459
3210	0.00333071
3222	0.00231843
3234	0.00375521
3246	0.00274294
3258	0.00290621
3270	0.00355929
3282	0.00222047
3294	0.00333071
3306	0.00362459
3318	0.00355929
3330	0.00362459
3342	0.00463687
3354	0.00460421
3366	0.00391848
3378	0.00342867
3390	0.00486545
3402	0.00453891
3414	0.00398379
3426	0.00222047
3438	0.00133881
3450	0.00486545
3462	0.00212251
3474	0.00261232
3486	0.00137147
3498	0.00192659
3510	0.00150208
3522	0.00473483
3534	0.00359194
3546	0.00617161
3558	0.00463687
3570	0.0090125
3582	0.00852269
3594	0.00414706
3606	0.0040491
3618	0.00372256
3630	0.00297151
3642	0.00244905
3654	0.00182862
3666	0.00140412
3678	0.0032654
3690	0.00519199
3702	0.00561649
3714	0.00480014
3726	0.00453891
3738	0.00620426
3750	0.000522464
3762	0.00535526
3774	0.00280824
3786	0.00137147
3798	0.0024164
3810	0.00509402
3822	0.00097962
3834	0.000391848
3846	0.00140412
3858	0.00225313
3870	0.00512668
3882	0.00228578
3894	0.00388583
3906	0.0044736
3918	0.000946966
3930	0.00675938
3942	0.00414706
3954	0.00179597
3966	0.00711857
