Infrared Spectrum: Silane, triethoxyethyl-
Formula: C 8 H 20 O 3 Si
CAS: 78-07-9
Origin: Sadtler Research Labs Under US-EPA Contract
1/CM	ABSORBANCE
450	0
462	0.0906849
474	0.0732879
486	0.083025
498	0.0525803
510	0.0536839
522	0.0555664
534	0.0595911
546	0.0601753
558	0.0616034
570	0.0527751
582	0.0674456
594	0.0588121
606	0.0686141
618	0.061863
630	0.0651087
642	0.0565401
654	0.0548523
666	0.0545927
678	0.0654333
690	0.0593314
702	0.0613437
714	0.0622525
726	0.0786109
738	0.102175
750	0.161766
762	0.158585
774	0.175852
786	0.23739
798	0.15086
810	0.0926323
822	0.0687439
834	0.0720545
846	0.0650438
858	0.0614736
870	0.0590717
882	0.0606946
894	0.0579033
906	0.0625771
918	0.0703668
930	0.0959429
942	0.151444
954	0.181175
966	0.161701
978	0.133918
990	0.0902305
1002	0.0873093
1014	0.115287
1026	0.0997728
1038	0.0966569
1050	0.117624
1062	0.155923
1074	0.269458
1086	0.390977
1098	0.318208
1110	0.570724
1122	0.573645
1134	0.366115
1146	0.265693
1158	0.215969
1170	0.18468
1182	0.151834
1194	0.111068
1206	0.0895164
1218	0.0806881
1230	0.0827653
1242	0.091334
1254	0.0936709
1266	0.0819215
1278	0.0768582
1290	0.0749108
1302	0.0752353
1314	0.0710808
1326	0.065693
1338	0.0627718
1350	0.0640701
1362	0.0682246
1374	0.0788056
1386	0.101266
1398	0.110159
1410	0.0789354
1422	0.0788056
1434	0.0718598
1446	0.0691334
1458	0.0702369
1470	0.0699124
1482	0.0614736
1494	0.0614086
1506	0.0592665
1518	0.0579682
1530	0.0568647
1542	0.0575787
1554	0.0564752
1566	0.0553716
1578	0.0553716
1590	0.0546576
1602	0.0552418
1614	0.0543979
1626	0.054333
1638	0.0557611
1650	0.0574489
1662	0.0529698
1674	0.0551769
1686	0.0563454
1698	0.0563454
1710	0.0555664
1722	0.0561506
1734	0.055826
1746	0.0553716
1758	0.0556962
1770	0.0549822
1782	0.0544628
1794	0.0542681
1806	0.0545278
1818	0.0541383
1830	0.0548523
1842	0.0545278
1854	0.0556962
1866	0.0575138
1878	0.0574489
1890	0.0577735
1902	0.0583577
1914	0.0571243
1926	0.0562804
1938	0.0553067
1950	0.054333
1962	0.0540084
1974	0.0534891
1986	0.0534242
1998	0.0529698
2010	0.0529698
2022	0.0527102
2034	0.0527751
2046	0.0524505
2058	0.0525803
2070	0.0525803
2082	0.0524505
2094	0.0531646
2106	0.0524505
2118	0.0525803
2130	0.0525803
2142	0.0523856
2154	0.0526453
2166	0.0527751
2178	0.0531646
2190	0.0529049
2202	0.0530347
2214	0.0529049
2226	0.0530347
2238	0.0523207
2250	0.0525803
2262	0.0523207
2274	0.0518663
2286	0.0512171
2298	0.050568
2310	0.0493346
2322	0.0508926
2334	0.051347
2346	0.0523207
2358	0.0514768
2370	0.0522558
2382	0.0514768
2394	0.0523856
2406	0.0523856
2418	0.0525154
2430	0.05284
2442	0.0533593
2454	0.0532295
2466	0.0532944
2478	0.05284
2490	0.0523856
2502	0.0524505
2514	0.05284
2526	0.0527751
2538	0.0525803
2550	0.0523207
2562	0.0527751
2574	0.0527102
2586	0.0527102
2598	0.0532295
2610	0.0533593
2622	0.0534891
2634	0.0540734
2646	0.0540734
2658	0.054333
2670	0.0542032
2682	0.0540734
2694	0.054333
2706	0.0549822
2718	0.0569945
2730	0.0590068
2742	0.0616034
2754	0.0613437
2766	0.0608893
2778	0.0609542
2790	0.0598507
2802	0.0606297
2814	0.0631613
2826	0.0666667
2838	0.0697825
2850	0.0770529
2862	0.0901006
2874	0.119182
2886	0.172606
2898	0.188965
2910	0.174684
2922	0.174359
2934	0.196949
2946	0.175787
2958	0.158715
2970	0.213242
2982	0.251217
2994	0.15508
3006	0.106264
3018	0.0825706
3030	0.0697176
3042	0.0630964
3054	0.0593963
3066	0.0575787
3078	0.0569945
3090	0.0566699
3102	0.0564752
3114	0.0554366
3126	0.0553716
3138	0.0545927
3150	0.0545278
3162	0.054333
3174	0.0531646
3186	0.0541383
3198	0.0531646
3210	0.0537488
3222	0.0534891
3234	0.0536839
3246	0.052061
3258	0.0526453
3270	0.0523207
3282	0.0516715
3294	0.0517365
3306	0.0518014
3318	0.0518014
3330	0.0509575
3342	0.0512821
3354	0.0517365
3366	0.0512821
3378	0.0514119
3390	0.0514119
3402	0.0512171
3414	0.051347
3426	0.0510224
3438	0.0510873
3450	0.0509575
3462	0.0503733
3474	0.0507627
3486	0.0501785
3498	0.0502434
3510	0.0512171
3522	0.0503083
3534	0.0505031
3546	0.0508277
3558	0.0503083
3570	0.0510224
3582	0.0509575
3594	0.0502434
3606	0.0519961
3618	0.0503733
3630	0.0514768
3642	0.0510873
3654	0.0539435
3666	0.0523856
3678	0.0525154
3690	0.0524505
3702	0.0511522
3714	0.0508277
3726	0.049854
3738	0.0493346
3750	0.05284
3762	0.0502434
3774	0.0495294
3786	0.0504382
3798	0.0506329
3810	0.0501785
3822	0.0530997
3834	0.0510873
3846	0.0508926
3858	0.0521259
3870	0.0514119
3882	0.0516715
3894	0.0502434
3906	0.0525154
3918	0.0509575
3930	0.0519312
3942	0.0501785
3954	0.0525803
3966	0.0533593
