Infrared Spectrum: Cyclohexanol, 1-ethynyl-
Formula: C 8 H 12 O
CAS: 78-27-3
Origin: Sadtler Research Labs Under US-EPA Contract
1/CM	ABSORBANCE
450	0
462	0.0736629
474	0.0443881
486	0.039271
498	0.0577165
510	0.0867532
522	0.115909
534	0.0904423
546	0.0972255
558	0.0897283
570	0.0655707
582	0.0567644
594	0.0535513
606	0.0580735
618	0.120074
630	0.302982
642	0.311431
654	0.322736
666	0.151848
678	0.0644996
690	0.0495052
702	0.0473632
714	0.0435551
726	0.0458162
738	0.0455781
750	0.0453401
762	0.0497433
774	0.0502193
786	0.0511713
798	0.0489102
810	0.0478392
822	0.0502193
834	0.0548604
846	0.0691407
858	0.0629526
870	0.0479582
882	0.0464112
894	0.0610485
906	0.080922
918	0.0729488
930	0.0716398
942	0.113648
954	0.18386
966	0.279062
978	0.173387
990	0.0628336
1002	0.0483152
1014	0.0577165
1026	0.101153
1038	0.131617
1050	0.151134
1062	0.269661
1074	0.317619
1086	0.162082
1098	0.0714018
1110	0.0567644
1122	0.0608105
1134	0.0756859
1146	0.0892523
1158	0.109959
1170	0.106508
1182	0.0877052
1194	0.078899
1206	0.0740199
1218	0.0747339
1230	0.0830641
1242	0.125191
1254	0.213372
1266	0.189334
1278	0.120907
1290	0.10508
1302	0.116028
1314	0.134949
1326	0.136615
1338	0.121978
1350	0.102819
1362	0.0913943
1374	0.0974635
1386	0.0868722
1398	0.0648566
1410	0.0533133
1422	0.0527183
1434	0.0709258
1446	0.127571
1458	0.144232
1470	0.0913943
1482	0.0466492
1494	0.0373669
1506	0.038676
1518	0.038557
1530	0.0373669
1542	0.0341539
1554	0.0340349
1566	0.0354629
1578	0.0371289
1590	0.0316548
1602	0.0323688
1614	0.0358199
1626	0.0324878
1638	0.0328448
1650	0.0334398
1662	0.0311788
1674	0.0348679
1686	0.0318928
1698	0.0340349
1710	0.0348679
1722	0.039866
1734	0.0452211
1746	0.0433171
1758	0.0327258
1770	0.0320118
1782	0.0304648
1794	0.0324878
1806	0.0298698
1818	0.0290367
1830	0.0308218
1842	0.0292747
1854	0.0267757
1866	0.0279657
1878	0.0283227
1890	0.0285607
1902	0.0283227
1914	0.0280847
1926	0.0295127
1938	0.0290367
1950	0.0274897
1962	0.0279657
1974	0.0274897
1986	0.0273707
1998	0.0278467
2010	0.0279657
2022	0.0273707
2034	0.0279657
2046	0.0270137
2058	0.0270137
2070	0.0266567
2082	0.0267757
2094	0.0268947
2106	0.0277277
2118	0.0283227
2130	0.0274897
2142	0.0264187
2154	0.0259427
2166	0.0258237
2178	0.0258237
2190	0.0261807
2202	0.0265377
2214	0.0261807
2226	0.0255856
2238	0.0253476
2250	0.0257046
2262	0.0258237
2274	0.0261807
2286	0.0283227
2298	0.0315358
2310	0.0360579
2322	0.0349869
2334	0.0361769
2346	0.039152
2358	0.0326068
2370	0.038319
2382	0.0291557
2394	0.0226106
2406	0.0233246
2418	0.0232056
2430	0.0232056
2442	0.0223726
2454	0.0223726
2466	0.0216585
2478	0.0222536
2490	0.0229676
2502	0.0226106
2514	0.0230866
2526	0.0228486
2538	0.0228486
2550	0.0224916
2562	0.0227296
2574	0.0227296
2586	0.0234436
2598	0.0243956
2610	0.0252286
2622	0.0258237
2634	0.0259427
2646	0.0268947
2658	0.0295127
2670	0.0332018
2682	0.0328448
2694	0.0292747
2706	0.0265377
2718	0.0252286
2730	0.0247526
2742	0.0252286
2754	0.0261807
2766	0.0266567
2778	0.0287987
2790	0.0318928
2802	0.0343919
2814	0.0349869
2826	0.0346299
2838	0.039628
2850	0.0863962
2862	0.244789
2874	0.281085
2886	0.147564
2898	0.109007
2910	0.136734
2922	0.212182
2934	0.622029
2946	1.19003
2958	0.70307
2970	0.145303
2982	0.0417701
2994	0.0289177
3006	0.0253476
3018	0.0251096
3030	0.0248716
3042	0.0253476
3054	0.0264187
3066	0.0259427
3078	0.0247526
3090	0.0243956
3102	0.0234436
3114	0.0232056
3126	0.0235626
3138	0.0246336
3150	0.0249906
3162	0.0258237
3174	0.0252286
3186	0.0259427
3198	0.0252286
3210	0.0245146
3222	0.0238006
3234	0.0247526
3246	0.0248716
3258	0.0252286
3270	0.0285607
3282	0.0359389
3294	0.0584305
3306	0.0982965
3318	0.211944
3330	0.240862
3342	0.079613
3354	0.0336778
3366	0.0297507
3378	0.0278467
3390	0.0273707
3402	0.0264187
3414	0.0260617
3426	0.0264187
3438	0.0271327
3450	0.0282037
3462	0.0268947
3474	0.0268947
3486	0.0257046
3498	0.0257046
3510	0.0254666
3522	0.0249906
3534	0.0261807
3546	0.0252286
3558	0.0261807
3570	0.0238006
3582	0.0270137
3594	0.0226106
3606	0.0280847
3618	0.0357009
3630	0.077471
3642	0.128761
3654	0.0697358
3666	0.0358199
3678	0.0280847
3690	0.0215395
3702	0.0271327
3714	0.0252286
3726	0.0266567
3738	0.0276087
3750	0.0210635
3762	0.0311788
3774	0.0304648
3786	0.0282037
3798	0.0265377
3810	0.0343919
3822	0.0259427
3834	0.0276087
3846	0.0274897
3858	0.0265377
3870	0.0315358
3882	0.0283227
3894	0.0346299
3906	0.0296317
3918	0.0285607
3930	0.0316548
3942	0.0298698
3954	0.0272517
3966	0.0260617
