Infrared Spectrum: 1,3-Propanediol, 2-methyl-2-propyl-
Formula: C 7 H 16 O 2
CAS: 78-26-2
Origin: Sadtler Research Labs Under US-EPA Contract
1/CM	ABSORBANCE
450	0.0280477
462	0.02124
474	0.0276393
486	0.0204231
498	0.0170193
510	0.0121177
522	0.00966693
534	0.00585462
546	0.00299539
558	0.00462924
570	0.0185169
582	0.0260054
594	0.0239631
606	0.0142962
618	0.00462924
630	0.00245077
642	0.00108923
654	0.00285923
666	0.00354
678	0.000136154
690	0.00245077
702	0.0050377
714	0.00816924
726	0.0151131
738	0.0322685
750	0.0351277
762	0.0245077
774	0.0148408
786	0.00925847
798	0.0136154
810	0.0140239
822	0.0104839
834	0.0111646
846	0.0163385
858	0.0281839
870	0.036217
882	0.0426162
894	0.0525554
906	0.0623585
918	0.0829178
930	0.0939463
942	0.0879555
954	0.0927209
966	0.0998009
978	0.115595
990	0.151948
1002	0.259918
1014	0.561363
1026	0.947904
1038	1.04784
1050	0.918903
1062	0.716442
1074	0.465102
1086	0.241537
1098	0.144868
1110	0.0983032
1122	0.0974863
1134	0.11328
1146	0.137107
1158	0.153446
1170	0.148816
1182	0.129619
1194	0.114642
1206	0.113416
1218	0.124309
1230	0.131252
1242	0.12213
1254	0.113689
1266	0.113825
1278	0.113416
1290	0.116684
1302	0.113689
1314	0.110693
1326	0.110829
1338	0.113416
1350	0.119543
1362	0.141464
1374	0.179179
1386	0.191433
1398	0.174005
1410	0.165291
1422	0.140239
1434	0.104022
1446	0.130844
1458	0.216213
1470	0.281022
1482	0.204776
1494	0.0771993
1506	0.0315877
1518	0.0215123
1530	0.0149769
1542	0.01062
1554	0.01239
1566	0.0085777
1578	0.00912232
1590	0.00272308
1602	0.00122539
1614	0.00612693
1626	0.0032677
1638	0.0050377
1650	0.000272308
1662	0.00108923
1674	0.00408462
1686	0.01239
1698	0.00966693
1710	0.0085777
1722	0.0152492
1734	0.0197423
1746	0.0216485
1758	0.0163385
1770	0.0111646
1782	0.0085777
1794	0.00531001
1806	0.00422077
1818	0.00340385
1830	0.00163385
1842	0.00258693
1854	0.00136154
1866	0.00122539
1878	0.00122539
1890	0.00136154
1902	0.00149769
1914	0.00136154
1926	0.00108923
1938	0.00068077
1950	0.00068077
1962	0.00149769
1974	0.00217846
1986	0.00245077
1998	0.00258693
2010	0.00272308
2022	0.00408462
2034	0.00667155
2046	0.00898616
2058	0.0103477
2070	0.0104839
2082	0.0085777
2094	0.00599078
2106	0.00544616
2118	0.00462924
2130	0.00367616
2142	0.00204231
2154	0.00122539
2166	0.00163385
2178	0.00245077
2190	0.00231462
2202	0.00190616
2214	0.00122539
2226	0.00149769
2238	0.00204231
2250	0.00231462
2262	0.00190616
2274	0.00204231
2286	0.00313154
2298	0.00531001
2310	0.00748847
2322	0.00885001
2334	0.00762462
2346	0.00721616
2358	0.00599078
2370	0.00612693
2382	0.00667155
2394	0.0032677
2406	0.00285923
2418	0.00231462
2430	0.00190616
2442	0.00136154
2454	0.00122539
2466	0.00136154
2478	0.00068077
2490	0.000272308
2502	0.000272308
2514	0.000544616
2526	0.00204231
2538	0.00217846
2550	0.00163385
2562	0.00231462
2574	0.00313154
2586	0.00449308
2598	0.00639924
2610	0.00803309
2622	0.00776078
2634	0.00912232
2646	0.0122539
2658	0.01593
2670	0.0187893
2682	0.0208316
2694	0.0226016
2706	0.0269585
2718	0.03363
2730	0.0453393
2742	0.0558231
2754	0.059227
2766	0.0597716
2778	0.0644008
2790	0.0722978
2802	0.0848239
2814	0.10443
2826	0.130436
2838	0.187076
2850	0.305257
2862	0.467553
2874	0.748575
2886	0.959886
2898	0.8206
2910	0.806985
2922	0.951036
2934	1.12096
2946	1.12586
2958	1.17637
2970	1.36154
2982	0.771993
2994	0.252838
3006	0.114778
3018	0.0785609
3030	0.0650816
3042	0.0491516
3054	0.0347193
3066	0.0275031
3078	0.0245077
3090	0.0213762
3102	0.0189254
3114	0.0162023
3126	0.0144323
3138	0.0148408
3150	0.0149769
3162	0.0130708
3174	0.0119816
3186	0.0110285
3198	0.0110285
3210	0.00953078
3222	0.00708001
3234	0.00571847
3246	0.00435693
3258	0.00354
3270	0.00435693
3282	0.0050377
3294	0.00585462
3306	0.00422077
3318	0.00149769
3330	0.00258693
3342	0.00299539
3354	0.00381231
3366	0.00435693
3378	0.00163385
3390	0.000544616
3402	0.00149769
3414	0.00422077
3426	0.00462924
3438	0.00762462
3450	0.00422077
3462	0.00285923
3474	0.00408462
3486	0.00367616
3498	0.00490154
3510	0.00381231
3522	0.00204231
3534	0.00272308
3546	0.00462924
3558	0.00871386
3570	0.0221931
3582	0.0644008
3594	0.162568
3606	0.189526
3618	0.113825
3630	0.0699832
3642	0.0718893
3654	0.133431
3666	0.268223
3678	0.259101
3690	0.104022
3702	0.036217
3714	0.0177
3726	0.00993924
3738	0.00558231
3750	0.00612693
3762	0.00735232
3774	0.00830539
3786	0.00462924
3798	0.00367616
3810	0.000408462
3822	0.00531001
3834	0.00599078
3846	0.00912232
3858	0.0032677
3870	0.00517385
3882	0.00394847
3894	0.00381231
3906	0.0111646
3918	0.0085777
3930	0.00517385
3942	0.00394847
3954	0.00612693
3966	0.00939463
