Infrared Spectrum: Phosphonic acid, ethyl-, diethyl ester
Formula: C 6 H 15 O 3 P
CAS: 78-38-6
Origin: Sadtler Research Labs Under US-EPA Contract
1/CM	ABSORBANCE
450	0.0168113
462	0.021113
474	0.0281836
486	0.0384682
498	0.0391604
510	0.04633
522	0.0453411
534	0.0271948
546	0.009889
558	0.00489505
570	0.00306559
582	0.00138446
594	0.00192835
606	0.000939455
618	0.00148335
630	0.00148335
642	0.00202725
654	0.00286781
666	0.00445005
678	0.0136468
690	0.0317931
702	0.0385671
714	0.0232886
726	0.0151302
738	0.0262058
750	0.0363915
762	0.0569606
774	0.125195
786	0.170684
798	0.16569
810	0.09622
822	0.0378749
834	0.0183441
846	0.0123612
858	0.00993844
870	0.0101857
882	0.0126579
894	0.0178002
906	0.0290242
918	0.0555267
930	0.133056
942	0.308092
954	0.317486
966	0.182897
978	0.103439
990	0.0835126
1002	0.148582
1014	0.265223
1026	0.38043
1038	0.488517
1050	0.484413
1062	0.416574
1074	0.31719
1086	0.170882
1098	0.156444
1110	0.111103
1122	0.0635863
1134	0.0501372
1146	0.0488022
1158	0.0498406
1170	0.047665
1182	0.0371826
1194	0.0243269
1206	0.0190363
1218	0.0252169
1230	0.0505328
1242	0.0958244
1254	0.148384
1266	0.1915
1278	0.158076
1290	0.132414
1302	0.101659
1314	0.0465277
1326	0.0187397
1338	0.0114218
1350	0.0107296
1362	0.015773
1374	0.0272442
1386	0.0432644
1398	0.0583945
1410	0.0345126
1422	0.0255631
1434	0.0199758
1446	0.0236842
1458	0.027887
1470	0.0290737
1482	0.0176024
1494	0.0106307
1506	0.00716952
1518	0.00489505
1530	0.00336226
1542	0.00267003
1554	0.00247225
1566	0.0019778
1578	0.00153279
1590	0.00158224
1602	0.00173058
1614	0.00207669
1626	0.0025217
1638	0.00247225
1650	0.00242281
1662	0.00212613
1674	0.00192835
1686	0.00192835
1698	0.00242281
1710	0.00262058
1722	0.00410393
1734	0.00489505
1746	0.0049445
1758	0.00454894
1770	0.00385671
1782	0.00316448
1794	0.00311503
1806	0.00316448
1818	0.00375782
1830	0.00459838
1842	0.00514228
1854	0.00519172
1866	0.00464783
1878	0.00370837
1890	0.00281836
1902	0.00128557
1914	0.00079112
1926	0.00029667
1938	0.000346115
1950	0.000346115
1962	0.00039556
1974	0.00089001
1986	0.00089001
1998	0.00039556
2010	0.000445005
2022	0.00039556
2034	0.00049445
2046	0.000445005
2058	0.000642785
2070	0.00049445
2082	0.00049445
2094	0.00049445
2106	0.00049445
2118	4.9445e-05
2130	4.9445e-05
2142	0.00049445
2154	0.000543895
2166	0.000543895
2178	0.000642785
2190	4.9445e-05
2202	9.889e-05
2214	0.00019778
2226	0.00019778
2238	0.00019778
2250	0.00019778
2262	0.00019778
2274	0.000840565
2286	0.00029667
2298	0.000445005
2310	0.000543895
2322	0.00069223
2334	0.00069223
2346	0.00168113
2358	0.000840565
2370	0.00276892
2382	0.00207669
2394	0.00148335
2406	0.00153279
2418	0.00153279
2430	0.0019778
2442	0.00217558
2454	0.00207669
2466	0.00158224
2478	0.00148335
2490	0.00118668
2502	0.00118668
2514	0.00123613
2526	0.00123613
2538	0.00123613
2550	0.00128557
2562	0.00133501
2574	0.00089001
2586	0.000939455
2598	0.00128557
2610	0.00138446
2622	0.00148335
2634	0.00103834
2646	0.00103834
2658	0.00158224
2670	0.00108779
2682	0.00113723
2694	0.00182946
2706	0.00247225
2718	0.00267003
2730	0.00365893
2742	0.00464783
2754	0.00519172
2766	0.00524117
2778	0.00573562
2790	0.00529062
2802	0.00529062
2814	0.00662563
2826	0.00781231
2838	0.00929566
2850	0.0113229
2862	0.0148335
2874	0.026107
2886	0.0446488
2898	0.0634379
2910	0.0712997
2922	0.0745136
2934	0.0968133
2946	0.119558
2958	0.108136
2970	0.103142
2982	0.182304
2994	0.183194
3006	0.0874188
3018	0.0444511
3030	0.0240303
3042	0.0144874
3054	0.00939455
3066	0.0069223
3078	0.00543895
3090	0.00474672
3102	0.00459838
3114	0.00459838
3126	0.00454894
3138	0.00425227
3150	0.00380726
3162	0.00380726
3174	0.00375782
3186	0.0034117
3198	0.00306559
3210	0.0029667
3222	0.0029667
3234	0.0025217
3246	0.0025217
3258	0.0025217
3270	0.00217558
3282	0.00217558
3294	0.00222502
3306	0.00222502
3318	0.00178002
3330	0.00182946
3342	0.00182946
3354	0.0019778
3366	0.00192835
3378	0.0019778
3390	0.00148335
3402	0.000939455
3414	0.00133501
3426	0.00158224
3438	0.00108779
3450	0.00118668
3462	0.00113723
3474	0.00123613
3486	0.00128557
3498	0.00118668
3510	0.000939455
3522	0.000840565
3534	0.000939455
3546	0.00138446
3558	0.000840565
3570	0.00103834
3582	0.00089001
3594	0.00059334
3606	0.000642785
3618	0.000642785
3630	0.000939455
3642	0.000741675
3654	0.000741675
3666	0.000840565
3678	0.000840565
3690	0.00089001
3702	0.00089001
3714	0.00089001
3726	0.000642785
3738	0.00103834
3750	0.0009889
3762	0.00059334
3774	0.000642785
3786	9.889e-05
3798	0.00019778
3810	0.00069223
3822	0.000346115
3834	0.000840565
3846	0.00089001
3858	0.000939455
3870	0.00138446
3882	0.0014339
3894	0.00148335
3906	0.00148335
3918	0.00207669
3930	0.00207669
3942	0.00321392
3954	0.00316448
3966	0.00365893
