Infrared Spectrum: Triethyl phosphate
Formula: C 6 H 15 O 4 P
CAS: 78-40-0
Origin: Sadtler Research Labs Under US-EPA Contract
1/CM	ABSORBANCE
450	0
462	0.0033858
474	0.00603801
486	0.00744876
498	0.0103831
510	0.0165904
522	0.0268607
534	0.0310365
546	0.0218384
558	0.0103831
570	0.00434511
582	0.00191862
594	0.00135432
606	0.00141075
618	0.00141075
630	0.00276507
642	0.00101574
654	0.00129789
666	0.00039501
678	0.00135432
690	0.0016929
702	0.00237006
714	0.00445797
726	0.00925452
738	0.015744
750	0.0168726
762	0.00942381
774	0.0107217
786	0.0248292
798	0.0502791
810	0.0650074
822	0.0497713
834	0.0203148
846	0.0101574
858	0.00711018
870	0.00615087
882	0.00609444
894	0.00711018
906	0.00998811
918	0.0164211
930	0.0314879
942	0.0660795
954	0.130974
966	0.175272
978	0.132215
990	0.0655152
1002	0.0428304
1014	0.0643302
1026	0.163591
1038	0.463347
1050	0.517858
1062	0.297838
1074	0.137463
1086	0.0837421
1098	0.0698603
1110	0.0490377
1122	0.0351559
1134	0.0314879
1146	0.0325037
1158	0.0335758
1170	0.0324472
1182	0.0257321
1194	0.015349
1206	0.00942381
1218	0.00784377
1230	0.00840807
1242	0.00964953
1254	0.0152925
1266	0.0416453
1278	0.101123
1290	0.0934481
1302	0.092263
1314	0.0569943
1326	0.0192991
1338	0.0102138
1350	0.00835164
1362	0.0105524
1374	0.0201455
1386	0.0215563
1398	0.0323344
1410	0.0154618
1422	0.00891594
1434	0.00874665
1446	0.0111731
1458	0.0102138
1470	0.00880308
1482	0.0079002
1494	0.00626373
1506	0.00490941
1518	0.00316008
1530	0.00203148
1542	0.00180576
1554	0.00174933
1566	0.0011286
1578	0.00118503
1590	0.00124146
1602	0.00186219
1614	0.00141075
1626	0.00129789
1638	0.0011286
1650	0.00152361
1662	0.00124146
1674	0.00163647
1686	0.00208791
1698	0.00203148
1710	0.00186219
1722	0.0016929
1734	0.00208791
1746	0.00220077
1758	0.00276507
1770	0.00378081
1782	0.00406296
1794	0.00389367
1806	0.00287793
1818	0.00237006
1830	0.00287793
1842	0.00332937
1854	0.00445797
1866	0.00440154
1878	0.00428868
1890	0.0039501
1902	0.0033858
1914	0.00299079
1926	0.00237006
1938	0.00191862
1950	0.00129789
1962	0.00135432
1974	0.00141075
1986	0.00141075
1998	0.00141075
2010	0.00129789
2022	0.00141075
2034	0.00107217
2046	0.00090288
2058	0.00095931
2070	0.00101574
2082	0.00146718
2094	0.00090288
2106	0.0011286
2118	0.00141075
2130	0.00095931
2142	0.00090288
2154	0.00107217
2166	0.00135432
2178	0.00146718
2190	0.00101574
2202	0.00101574
2214	0.00101574
2226	0.00101574
2238	0.00095931
2250	0.00101574
2262	0.00101574
2274	0.00090288
2286	0.00090288
2298	0.00062073
2310	0.00084645
2322	0.00067716
2334	0.00073359
2346	0.0005643
2358	0.00118503
2370	0.00039501
2382	0.00062073
2394	0.0005643
2406	0.00107217
2418	0.00107217
2430	0.00107217
2442	0.00107217
2454	0.00107217
2466	0.00101574
2478	0.00101574
2490	0.00045144
2502	0.00062073
2514	0.00062073
2526	0.00062073
2538	0.00062073
2550	0.00062073
2562	0.00062073
2574	0.00062073
2586	0.00062073
2598	0.00062073
2610	0.00062073
2622	0.00062073
2634	0.0005643
2646	0.0005643
2658	0.0005643
2670	0.0005643
2682	0.00067716
2694	0.00062073
2706	0.0005643
2718	0.00101574
2730	0.00163647
2742	0.00163647
2754	0.00220077
2766	0.00214434
2778	0.00316008
2790	0.00276507
2802	0.00248292
2814	0.00248292
2826	0.00310365
2838	0.00321651
2850	0.00423225
2862	0.00581229
2874	0.0110603
2886	0.0170983
2898	0.0183397
2910	0.0291743
2922	0.0335194
2934	0.0384853
2946	0.0518592
2958	0.0375824
2970	0.0422661
2982	0.0751083
2994	0.0869586
3006	0.0486991
3018	0.0256757
3030	0.0134868
3042	0.00716661
3054	0.00434511
3066	0.00276507
3078	0.0022572
3090	0.00174933
3102	0.0016929
3114	0.00180576
3126	0.00174933
3138	0.00141075
3150	0.00124146
3162	0.00118503
3174	0.00129789
3186	0.00186219
3198	0.00129789
3210	0.00124146
3222	0.00124146
3234	0.00129789
3246	0.00129789
3258	0.00084645
3270	0.00084645
3282	0.00079002
3294	0.00073359
3306	0.00079002
3318	0.00079002
3330	0.00084645
3342	0.00084645
3354	0.00073359
3366	0.00079002
3378	0.00084645
3390	0.00079002
3402	0.00084645
3414	0.00079002
3426	0.00084645
3438	0.00090288
3450	0.00090288
3462	0.00084645
3474	0.00084645
3486	0.00090288
3498	0.00090288
3510	0.00090288
3522	0.00090288
3534	0.00090288
3546	0.00084645
3558	0.00084645
3570	0.00090288
3582	0.00095931
3594	0.00095931
3606	0.00039501
3618	0.00101574
3630	0.00101574
3642	0.00039501
3654	0.00045144
3666	0.00095931
3678	0.00095931
3690	0.00095931
3702	0.00039501
3714	0.00045144
3726	0.00073359
3738	0.00062073
3750	0.00062073
3762	0.0005643
3774	0.00079002
3786	0.00073359
3798	0.00079002
3810	0.00079002
3822	0.00039501
3834	0.00039501
3846	0.00045144
3858	0.00039501
3870	0.00039501
3882	0.00039501
3894	0.00095931
3906	0.00062073
3918	0.00062073
3930	0.00073359
3942	0.00090288
3954	0.00045144
3966	0.00067716
