Infrared Spectrum: Dibutyl butanephosphonate
Formula: C 12 H 27 O 3 P
CAS: 78-46-6
Origin: Sadtler Research Labs Under US-EPA Contract
1/CM	ABSORBANCE
450	0.0340092
462	0.0401158
474	0.0438737
486	0.0424645
498	0.0409613
510	0.0527048
522	0.0566506
534	0.0876535
546	0.103719
558	0.0622875
570	0.0279965
582	0.0103343
594	0.00479135
606	0.000845532
618	0.00122132
630	0.00159712
642	0.0021608
654	0.00413371
666	0.0117435
678	0.0159712
690	0.0385187
702	0.0465043
714	0.0495106
726	0.0803255
738	0.0881232
750	0.0709307
762	0.0619117
774	0.0669849
786	0.0852108
798	0.131339
810	0.152102
822	0.162436
834	0.161215
846	0.116683
858	0.0631331
870	0.0708368
882	0.119502
894	0.175589
906	0.221999
918	0.169012
930	0.0878414
942	0.106255
954	0.217865
966	0.377577
978	0.567446
990	0.40905
1002	0.409331
1014	0.611508
1026	0.93948
1038	0.721145
1050	0.569513
1062	0.522351
1074	0.549126
1086	0.337367
1098	0.165724
1110	0.103343
1122	0.0878414
1134	0.0747826
1146	0.0674547
1158	0.0538322
1170	0.0390824
1182	0.0339152
1194	0.0302513
1206	0.0376731
1218	0.0880293
1230	0.101276
1242	0.110859
1254	0.2344
1266	0.420323
1278	0.266906
1290	0.169952
1302	0.111047
1314	0.0772253
1326	0.0456587
1338	0.0305331
1350	0.0353244
1362	0.0291239
1374	0.0345729
1386	0.081265
1398	0.0609723
1410	0.0490409
1422	0.0330697
1434	0.0395521
1446	0.0513896
1458	0.0838956
1470	0.110483
1482	0.0626633
1494	0.0286541
1506	0.0185078
1518	0.012589
1530	0.00967664
1542	0.007234
1554	0.00601267
1566	0.00667031
1578	0.00422766
1590	0.00563688
1602	0.00197291
1614	0.00497924
1626	0.0023487
1638	0.00422766
1650	0.00281844
1662	0.00432161
1674	0.00375792
1686	0.00497924
1698	0.00563688
1710	0.00563688
1722	0.0048853
1734	0.00601267
1746	0.00554293
1758	0.00789163
1770	0.00826742
1782	0.00854927
1794	0.00629452
1806	0.00873716
1818	0.00883111
1830	0.00817348
1842	0.00667031
1854	0.0048853
1866	0.00629452
1878	0.0070461
1890	0.00507319
1902	0.00432161
1914	0.00413371
1926	0.00310028
1938	0.00338213
1950	0.00159712
1962	0.00366397
1974	0.00328818
1986	0.00150317
1998	0.00263054
2010	0.00140922
2022	0.00300634
2034	0.00357002
2046	0.0021608
2058	0.00281844
2070	0.00291239
2082	0.00131527
2094	0.00187896
2106	0.00150317
2118	0.00281844
2130	0.00225475
2142	0.00140922
2154	0.00112738
2166	0.00328818
2178	0.00300634
2190	0.00225475
2202	0.00244265
2214	0.00206686
2226	0.00140922
2238	0.0023487
2250	0.00103343
2262	0.00150317
2274	0.00140922
2286	0.00159712
2298	0.00187896
2310	0.0025366
2322	0.00357002
2334	0.00131527
2346	0.00300634
2358	0.00836137
2370	0.00291239
2382	0.00291239
2394	0.00206686
2406	0.00159712
2418	0.00150317
2430	0.00150317
2442	0.00131527
2454	0.000657636
2466	0.00122132
2478	0.000751584
2490	0.00150317
2502	0.00112738
2514	0.00140922
2526	0.00206686
2538	0.00131527
2550	0.00150317
2562	0.0021608
2574	0.00225475
2586	0.00244265
2598	0.00281844
2610	0.00338213
2622	0.00328818
2634	0.00375792
2646	0.00357002
2658	0.00535504
2670	0.00601267
2682	0.00648241
2694	0.007234
2706	0.00789163
2718	0.00779768
2730	0.0104282
2742	0.0147498
2754	0.016347
2766	0.0150317
2778	0.014468
2790	0.0155954
2802	0.0189775
2814	0.0238628
2826	0.030721
2838	0.0445314
2850	0.0766616
2862	0.120066
2874	0.238064
2886	0.338119
2898	0.267094
2910	0.303828
2922	0.361982
2934	0.437422
2946	0.595536
2958	0.629076
2970	0.858779
2982	0.422296
2994	0.154732
3006	0.0779768
3018	0.048759
3030	0.0350426
3042	0.0266812
3054	0.019823
3066	0.0159712
3078	0.0139043
3090	0.0127769
3102	0.010804
3114	0.00967664
3126	0.00948875
3138	0.00779768
3150	0.00770374
3162	0.00751584
3174	0.00789163
3186	0.00676426
3198	0.00582478
3210	0.00573083
3222	0.0046974
3234	0.00366397
3246	0.00328818
3258	0.0023487
3270	0.00328818
3282	0.00159712
3294	0.00263054
3306	0.00225475
3318	0.00291239
3330	0.0021608
3342	0.00272449
3354	0.00197291
3366	0.0021608
3378	0.0025366
3390	0.00338213
3402	0.0025366
3414	0.00263054
3426	0.00169106
3438	0.00244265
3450	0.00225475
3462	0.00281844
3474	0.00319423
3486	0.00244265
3498	0.00206686
3510	0.00178501
3522	0.00150317
3534	0.00187896
3546	0.00366397
3558	0.00225475
3570	0.00178501
3582	0.0023487
3594	0.00272449
3606	0.00366397
3618	0.00272449
3630	0.00281844
3642	0.00338213
3654	0.00263054
3666	0.00394582
3678	0.00225475
3690	0.00338213
3702	0.00338213
3714	0.00206686
3726	0.0021608
3738	0.00225475
3750	0.00385187
3762	0.00187896
3774	0.00046974
3786	0.00046974
3798	0.00366397
3810	0.00140922
3822	0.0025366
3834	0.00291239
3846	0.00347608
3858	0
3870	0.00432161
3882	0.0046974
3894	0
3906	0.00103343
3918	0.00347608
3930	0.00629452
3942	0.00338213
3954	0.00667031
3966	0.00263054
