Infrared Spectrum: 2-Cyclohexen-1-one, 3,5,5-trimethyl-
Formula: C 9 H 14 O
CAS: 78-59-1
Origin: Sadtler Research Labs Under US-EPA Contract
1/CM	ABSORBANCE
450	0
462	0.0157962
474	0.0177268
486	0.0180778
498	0.0298372
510	0.0280821
522	0.0856503
534	0.060903
546	0.0282576
558	0.0242208
570	0.0112328
582	0.0108818
594	0.0121104
606	0.0107063
618	0.0094777
630	0.00930219
642	0.00842462
654	0.00842462
666	0.0103553
678	0.00895116
690	0.0107063
702	0.0094777
714	0.0101798
726	0.0112328
738	0.0110573
750	0.0110573
762	0.0114083
774	0.0157962
786	0.0150941
798	0.0184289
810	0.0358047
822	0.0781033
834	0.0517763
846	0.0414211
858	0.0661684
870	0.0521274
882	0.0379108
894	0.0700297
906	0.140235
918	0.0756461
930	0.0229922
942	0.0235187
954	0.020184
966	0.0163227
978	0.0243963
990	0.0384373
1002	0.0394904
1014	0.047564
1026	0.0454579
1038	0.0305393
1050	0.0191309
1062	0.0159717
1074	0.0164982
1086	0.0173758
1098	0.0219391
1110	0.0422986
1122	0.0724869
1134	0.0647643
1146	0.080385
1158	0.0703807
1170	0.0384373
1182	0.0470375
1194	0.053356
1206	0.0545845
1218	0.0756461
1230	0.139182
1242	0.301882
1254	0.247298
1266	0.219391
1278	0.320487
1290	0.217461
1302	0.171301
1314	0.113206
1326	0.0786298
1338	0.0633602
1350	0.175513
1362	0.333826
1374	0.362434
1386	0.316625
1398	0.117243
1410	0.0972342
1422	0.144798
1434	0.149011
1446	0.182534
1458	0.172178
1470	0.144447
1482	0.088283
1494	0.0310658
1506	0.0156207
1518	0.014041
1530	0.0110573
1542	0.0124614
1554	0.0200085
1566	0.0250984
1578	0.0326454
1590	0.0321189
1602	0.0375598
1614	0.0577438
1626	0.107414
1638	0.229395
1650	0.203946
1662	0.149362
1674	0.378933
1686	1.21262
1698	1.75513
1710	0.939521
1722	0.489857
1734	0.21711
1746	0.117769
1758	0.0651153
1770	0.0561642
1782	0.0387884
1794	0.0352781
1806	0.0322944
1818	0.0203595
1830	0.0163227
1842	0.0135145
1854	0.0145676
1866	0.0126369
1878	0.0128124
1890	0.0103553
1902	0.0121104
1914	0.00965321
1926	0.0100042
1938	0.0121104
1950	0.00965321
1962	0.0103553
1974	0.0119349
1986	0.0105308
1998	0.0103553
2010	0.0100042
2022	0.0080736
2034	0.0105308
2046	0.0103553
2058	0.0101798
2070	0.0112328
2082	0.0103553
2094	0.00982873
2106	0.0101798
2118	0.00982873
2130	0.0107063
2142	0.0115839
2154	0.0108818
2166	0.0122859
2178	0.0121104
2190	0.0105308
2202	0.0103553
2214	0.0105308
2226	0.0100042
2238	0.0110573
2250	0.0114083
2262	0.0105308
2274	0.0101798
2286	0.0094777
2298	0.00965321
2310	0.0103553
2322	0.0100042
2334	0.0094777
2346	0.00877565
2358	0.00824911
2370	0.00842462
2382	0.00877565
2394	0.00930219
2406	0.0094777
2418	0.0094777
2430	0.00877565
2442	0.00895116
2454	0.00860014
2466	0.00789808
2478	0.00895116
2490	0.0094777
2502	0.00982873
2514	0.0105308
2526	0.0094777
2538	0.00895116
2550	0.0103553
2562	0.00965321
2574	0.00982873
2586	0.0101798
2598	0.00895116
2610	0.00895116
2622	0.00877565
2634	0.00877565
2646	0.0094777
2658	0.0105308
2670	0.0100042
2682	0.0105308
2694	0.0121104
2706	0.0145676
2718	0.0173758
2730	0.020886
2742	0.0258004
2754	0.0229922
2766	0.0164982
2778	0.0179023
2790	0.0210616
2802	0.0314168
2814	0.0637112
2826	0.123035
2838	0.112679
2850	0.100744
2862	0.177619
2874	0.364541
2886	0.447734
2898	0.471603
2910	0.487926
2922	0.393325
2934	0.383145
2946	0.519343
2958	0.816662
2970	0.898802
2982	0.42439
2994	0.154802
3006	0.0556376
3018	0.0393149
3030	0.0508988
3042	0.0979363
3054	0.080385
3066	0.0349271
3078	0.0286086
3090	0.0258004
3102	0.020184
3114	0.0149186
3126	0.0147431
3138	0.0147431
3150	0.01369
3162	0.0150941
3174	0.0157962
3186	0.0156207
3198	0.0156207
3210	0.013339
3222	0.0115839
3234	0.0110573
3246	0.00982873
3258	0.00895116
3270	0.00930219
3282	0.00842462
3294	0.00982873
3306	0.0103553
3318	0.00982873
3330	0.0126369
3342	0.0142166
3354	0.0189554
3366	0.0322944
3378	0.0319434
3390	0.0219391
3402	0.0157962
3414	0.0112328
3426	0.0108818
3438	0.0112328
3450	0.0100042
3462	0.0103553
3474	0.00982873
3486	0.0101798
3498	0.0112328
3510	0.0105308
3522	0.0101798
3534	0.0105308
3546	0.0103553
3558	0.00965321
3570	0.0110573
3582	0.0103553
3594	0.0119349
3606	0.00965321
3618	0.0110573
3630	0.0142166
3642	0.0100042
3654	0.0103553
3666	0.00965321
3678	0.0145676
3690	0.0100042
3702	0.0105308
3714	0.0108818
3726	0.0112328
3738	0.0122859
3750	0.0108818
3762	0.0100042
3774	0.00930219
3786	0.00842462
3798	0.00982873
3810	0.0101798
3822	0.01369
3834	0.0119349
3846	0.0124614
3858	0.0121104
3870	0.0142166
3882	0.0135145
3894	0.0122859
3906	0.0147431
3918	0.012988
3930	0.0114083
3942	0.0121104
3954	0.0105308
3966	0.0103553
