Infrared Spectrum: Ethanol, 2-butoxy-, phosphate (3:1)
Formula: C 18 H 39 O 7 P
CAS: 78-51-3
Origin: Sadtler Research Labs Under US-EPA Contract
1/CM	ABSORBANCE
450	0.00169218
462	0.00812246
474	0.00891215
486	0.00727637
498	0.0175987
510	0.0164141
522	0.0201933
534	0.0209266
546	0.0179935
558	0.0200805
570	0.0148912
582	0.0119017
594	0.00485092
606	0.000338436
618	0.00101531
630	0.00174859
642	0.00253827
654	0.00259468
666	0.00298952
678	0.00310233
690	0.00400483
702	0.00547138
714	0.007502
726	0.0126349
738	0.0197421
750	0.0253827
762	0.0221112
774	0.0204754
786	0.0307413
798	0.0515551
810	0.0643028
822	0.0594519
834	0.0578162
846	0.0544882
858	0.0547138
870	0.0553907
882	0.0521191
894	0.0462529
906	0.0404995
918	0.0471554
930	0.0729894
942	0.119017
954	0.171587
966	0.219758
978	0.243561
990	0.217953
1002	0.172602
1014	0.204077
1026	0.333359
1038	0.477364
1050	0.561353
1062	0.495583
1074	0.343964
1086	0.235833
1098	0.211184
1110	0.222296
1122	0.25975
1134	0.326591
1146	0.268154
1158	0.141353
1170	0.0749072
1182	0.0471554
1194	0.0359306
1206	0.0307977
1218	0.0321514
1230	0.0417968
1242	0.0568008
1254	0.073779
1266	0.0885574
1278	0.13199
1290	0.154947
1302	0.167018
1314	0.100177
1326	0.0500321
1338	0.0431506
1350	0.0386381
1362	0.0587751
1374	0.0478323
1386	0.0526268
1398	0.0314181
1410	0.0189524
1422	0.0169218
1434	0.0235777
1446	0.0331667
1458	0.0560676
1470	0.0525704
1482	0.0368331
1494	0.0190088
1506	0.01083
1518	0.00688153
1530	0.00575341
1542	0.00411764
1554	0.0047381
1566	0.00355358
1578	0.00428686
1590	0.00327155
1602	0.0037792
1614	0.00327155
1626	0.00349717
1638	0.0028203
1650	0.00355358
1662	0.00265108
1674	0.00203062
1686	0.00276389
1698	0.00197421
1710	0.00315874
1722	0.00332795
1734	0.00366639
1746	0.00597904
1758	0.00620466
1770	0.00535857
1782	0.00530216
1794	0.00518935
1806	0.0046817
1818	0.00434326
1830	0.00327155
1842	0.00360998
1854	0.00456889
1866	0.00439967
1878	0.0047381
1890	0.0046817
1902	0.00490732
1914	0.00485092
1926	0.00485092
1938	0.00479451
1950	0.00502013
1962	0.0046817
1974	0.00417404
1986	0.00366639
1998	0.00315874
2010	0.0028203
2022	0.00298952
2034	0.0028203
2046	0.00293311
2058	0.00293311
2070	0.00298952
2082	0.00321514
2094	0.00344077
2106	0.00327155
2118	0.0028203
2130	0.00265108
2142	0.00242546
2154	0.00225624
2166	0.00231265
2178	0.00248186
2190	0.00208702
2202	0.00203062
2214	0.00197421
2226	0.0018614
2238	0.0018614
2250	0.00197421
2262	0.0018614
2274	0.00163577
2286	0.00169218
2298	0.000789684
2310	0.000394842
2322	0.000112812
2334	0.000225624
2346	0.000338436
2358	0.000112812
2370	0.000112812
2382	0.00129734
2394	0.00146656
2406	0.00129734
2418	0.00141015
2430	0.00124093
2442	0.00112812
2454	0.00101531
2466	0.00084609
2478	0.00084609
2490	0.000902496
2502	0.000958902
2514	0.00112812
2526	0.00118453
2538	0.00141015
2550	0.00146656
2562	0.0018614
2574	0.00219983
2586	0.00248186
2598	0.00270749
2610	0.00276389
2622	0.00327155
2634	0.0037792
2646	0.00389201
2658	0.00451248
2670	0.00524576
2682	0.00631747
2694	0.00829168
2706	0.0106607
2718	0.0130298
2730	0.0153988
2742	0.017091
2754	0.0175987
2766	0.0182191
2778	0.0199677
2790	0.0236341
2802	0.0291619
2814	0.0364947
2826	0.0437711
2838	0.0643592
2850	0.115745
2862	0.186309
2874	0.226357
2886	0.228614
2898	0.18755
2910	0.184842
2922	0.209266
2934	0.246833
2946	0.302731
2958	0.288517
2970	0.301264
2982	0.17971
2994	0.0865832
3006	0.0415148
3018	0.0242546
3030	0.0170346
3042	0.0128042
3054	0.00992746
3066	0.00789684
3078	0.00665591
3090	0.00597904
3102	0.00535857
3114	0.00434326
3126	0.00445607
3138	0.00355358
3150	0.00327155
3162	0.00327155
3174	0.00321514
3186	0.00270749
3198	0.00253827
3210	0.00242546
3222	0.0018614
3234	0.0019178
3246	0.0018614
3258	0.00208702
3270	0.00124093
3282	0.0018614
3294	0.00197421
3306	0.00180499
3318	0.00180499
3330	0.00214343
3342	0.00236905
3354	0.00163577
3366	0.0019178
3378	0.00214343
3390	0.0019178
3402	0.00180499
3414	0.00214343
3426	0.00214343
3438	0.00169218
3450	0.00157937
3462	0.00157937
3474	0.00231265
3486	0.00157937
3498	0.00152296
3510	0.00157937
3522	0.00214343
3534	0.00169218
3546	0.000958902
3558	0.00101531
3570	0.00107171
3582	0.00203062
3594	0.00135374
3606	0.00152296
3618	0.00242546
3630	0.00146656
3642	0.00157937
3654	0.00129734
3666	0.00417404
3678	0.000902496
3690	0.00208702
3702	0.00231265
3714	0.00203062
3726	0.00174859
3738	0.000507654
3750	0.00197421
3762	0.00163577
3774	0.00146656
3786	0.00208702
3798	0.00112812
3810	0.0028203
3822	0.000169218
3834	0.00141015
3846	0.00112812
3858	0.000733278
3870	0.00107171
3882	0.000676872
3894	0.00135374
3906	0.00203062
3918	0.00214343
3930	0.00157937
3942	0.00219983
3954	0.00203062
3966	0.00253827
