Infrared Spectrum: Butane, 2-chloro-
Formula: C 4 H 9 Cl
CAS: 78-86-4
Origin: Sadtler Research Labs Under US-EPA Contract
1/CM	ABSORBANCE
450	0.00447251
462	0.00382432
474	0.0027224
486	0.00129638
498	0.00213903
510	0.00959321
522	0.0117971
534	0.0103062
546	0.00460215
558	0.00356505
570	0.00434287
582	0.00959321
594	0.0276777
606	0.0618373
618	0.0883483
630	0.0921078
642	0.0492624
654	0.0265758
666	0.0373357
678	0.0603465
690	0.0530868
702	0.0129638
714	0.00226867
726	0.00168529
738	0.00317613
750	0.00311131
762	0.00576889
774	0.0175011
786	0.0429102
798	0.0506885
810	0.0480957
822	0.0390859
834	0.0554851
846	0.0569759
858	0.041549
870	0.012899
882	0.0040836
894	0.00317613
906	0.00220385
918	0.00395396
930	0.0092043
942	0.0254739
954	0.0416138
966	0.0511422
978	0.0441417
990	0.0459567
1002	0.0480957
1014	0.0398637
1026	0.0230756
1038	0.0108248
1050	0.0200939
1062	0.0356505
1074	0.040123
1086	0.0235941
1098	0.0198994
1110	0.0248905
1122	0.0291037
1134	0.0304649
1146	0.0466697
1158	0.0493921
1170	0.0381784
1182	0.00875057
1194	0.00550962
1206	0.0101766
1218	0.0329281
1230	0.0853018
1242	0.105525
1254	0.0771994
1266	0.0407063
1278	0.0630689
1290	0.0911355
1302	0.0838758
1314	0.0460863
1326	0.0236589
1338	0.01789
1350	0.0159455
1362	0.0294278
1374	0.0709768
1386	0.0983304
1398	0.0806348
1410	0.0265758
1422	0.0221681
1434	0.0541239
1446	0.0975526
1458	0.121665
1470	0.11285
1482	0.0646894
1494	0.026511
1506	0.0108896
1518	0.00518552
1530	0.00434287
1542	0.00304649
1554	0.00499106
1566	0.00466697
1578	0.00382432
1590	0.0051207
1602	0.00337059
1614	0.00369468
1626	0.00343541
1638	0.0023983
1650	0.00388914
1662	0.00330577
1674	0.00447251
1686	0.00317613
1698	0.00395396
1710	0.00246312
1722	0.00155566
1734	0.00181493
1746	0.00162048
1758	0.00181493
1770	0.00187975
1782	0.00110192
1794	0.000453733
1806	0.000777828
1818	0.00110192
1830	0.00123156
1842	0.00155566
1854	0.0010371
1866	0.00142602
1878	0.00064819
1890	0.000713009
1902	0.00110192
1914	0.00116674
1926	0.000713009
1938	0.000777828
1950	0.000713009
1962	0.000453733
1974	0.000972285
1986	0.000583371
1998	0.000518552
2010	0.000518552
2022	0
2034	0
2046	0
2058	0.000453733
2070	0.000453733
2082	0.0010371
2094	0.000972285
2106	0.000324095
2118	0.000518552
2130	0.000388914
2142	0.000583371
2154	0.00064819
2166	0.00123156
2178	0.000907466
2190	0.000972285
2202	0.0010371
2214	0.00149084
2226	0.00142602
2238	0.00142602
2250	0.00142602
2262	0.000907466
2274	0.000777828
2286	0.00110192
2298	0.00226867
2310	0.00246312
2322	0.00285204
2334	0.00259276
2346	0.00181493
2358	0.00285204
2370	0.000388914
2382	0.00194457
2394	0.00311131
2406	0.00317613
2418	0.00213903
2430	0.00123156
2442	0.00162048
2454	0.00181493
2466	0.00181493
2478	0.00187975
2490	0.00162048
2502	0.00187975
2514	0.00142602
2526	0.00149084
2538	0.00155566
2550	0.0010371
2562	0.00155566
2574	0.00207421
2586	0.00265758
2598	0.00298167
2610	0.00259276
2622	0.00213903
2634	0.00252794
2646	0.00252794
2658	0.00304649
2670	0.00265758
2682	0.00304649
2694	0.00337059
2706	0.00440769
2718	0.00570407
2730	0.00758382
2742	0.0101766
2754	0.0117322
2766	0.00926912
2778	0.00719491
2790	0.00868575
2802	0.0102414
2814	0.0140657
2826	0.0195753
2838	0.0289093
2850	0.0496514
2862	0.0729862
2874	0.110905
2886	0.15764
2898	0.178317
2910	0.173326
2922	0.206643
2934	0.298038
2946	0.331808
2958	0.36169
2970	0.453085
2982	0.557443
2994	0.499106
3006	0.203272
3018	0.0591797
3030	0.0200291
3042	0.0144546
3054	0.0130286
3066	0.0140009
3078	0.0149084
3090	0.0155566
3102	0.0130286
3114	0.00972285
3126	0.00771346
3138	0.00725973
3150	0.00823201
3162	0.00926912
3174	0.00998213
3186	0.0105007
3198	0.00985249
3210	0.00946357
3222	0.00842647
3234	0.00706527
3246	0.0054448
3258	0.00427805
3270	0.00427805
3282	0.00434287
3294	0.00531516
3306	0.00570407
3318	0.00531516
3330	0.00388914
3342	0.00285204
3354	0.00324095
3366	0.00382432
3378	0.00350023
3390	0.00343541
3402	0.00285204
3414	0.00311131
3426	0.00220385
3438	0.00220385
3450	0.00259276
3462	0.00226867
3474	0.00220385
3486	0.00278722
3498	0.00187975
3510	0.00187975
3522	0.00175011
3534	0.00194457
3546	0.00213903
3558	0.00200939
3570	0.00220385
3582	0.00187975
3594	0.00213903
3606	0.00252794
3618	0.00226867
3630	0.00187975
3642	0.00207421
3654	0.00187975
3666	0.00200939
3678	0.000713009
3690	0.00162048
3702	0.00226867
3714	0.00142602
3726	0.00220385
3738	0.00142602
3750	0.00142602
3762	0.000907466
3774	0.00162048
3786	0.00213903
3798	0.00155566
3810	0.00142602
3822	0.000907466
3834	0.00129638
3846	0.00110192
3858	0.00116674
3870	0.00110192
3882	0.0010371
3894	0.000842647
3906	0.00220385
3918	0.00259276
3930	0.00187975
3942	0.00226867
3954	0.00207421
3966	0.00304649
