Infrared Spectrum: 2-Butanol
Formula: C 4 H 10 O
CAS: 78-92-2
Origin: Sadtler Research Labs Under US-EPA Contract
1/CM	ABSORBANCE
450	0.036086
462	0.0161351
474	0.0203869
486	0.0224583
498	0.0275823
510	0.025729
522	0.010466
534	0.00839462
546	0.00545105
558	0.00556007
570	0.0144998
582	0.0129735
594	0.0130825
606	0.0129735
618	0.00970287
630	0.00970287
642	0.0062142
654	0.00839462
666	0.00556007
678	0.00948483
690	0.00763147
702	0.00479692
714	0.00479692
726	0.00599615
738	0.00403378
750	0.00719539
762	0.0139547
774	0.0174434
786	0.0194057
798	0.0182065
810	0.0195148
822	0.0235485
834	0.0172253
846	0.0131915
858	0.0114472
870	0.0176614
882	0.0454618
894	0.115889
906	0.195911
918	0.195584
930	0.130607
942	0.057127
954	0.0653036
966	0.121013
978	0.205941
990	0.262086
1002	0.261214
1014	0.221204
1026	0.184355
1038	0.157862
1050	0.134096
1062	0.151757
1074	0.191659
1086	0.220004
1098	0.214662
1110	0.228944
1122	0.255545
1134	0.280511
1146	0.261323
1158	0.200381
1170	0.13028
1182	0.0815477
1194	0.0691193
1206	0.0847093
1218	0.127664
1230	0.182283
1242	0.204087
1254	0.185009
1266	0.133769
1278	0.0977918
1290	0.0862356
1302	0.0825289
1314	0.0804575
1326	0.0767508
1338	0.0874348
1350	0.11698
1362	0.181302
1374	0.259906
1386	0.292067
1398	0.233959
1410	0.131915
1422	0.0843823
1434	0.0871078
1446	0.125156
1458	0.158408
1470	0.152411
1482	0.102044
1494	0.0548376
1506	0.0251839
1518	0.0134096
1530	0.00970287
1542	0.00784951
1554	0.00904874
1566	0.0088307
1578	0.00893972
1590	0.00774049
1602	0.0067593
1614	0.00632322
1626	0.00556007
1638	0.00534203
1650	0.00545105
1662	0.00665028
1674	0.00686832
1686	0.00741343
1698	0.00501497
1710	0.00512399
1722	0.00577811
1734	0.00588713
1746	0.00577811
1758	0.00490595
1770	0.00425182
1782	0.00359769
1794	0.00337965
1806	0.00403378
1818	0.00436084
1830	0.00359769
1842	0.00327063
1854	0.00316161
1866	0.00337965
1878	0.00436084
1890	0.00479692
1902	0.00490595
1914	0.00479692
1926	0.00370671
1938	0.00305259
1950	0.00337965
1962	0.00239846
1974	0.00239846
1986	0.00196238
1998	0.00196238
2010	0.00130825
2022	0.000763147
2034	0.00109021
2046	0.000872168
2058	0.000436084
2070	0.000436084
2082	0.00250748
2094	0.00316161
2106	0.00272552
2118	0.00283455
2130	0.00305259
2142	0.00359769
2154	0.00381573
2166	0.00337965
2178	0.00359769
2190	0.00250748
2202	0.00283455
2214	0.00283455
2226	0.0026165
2238	0.00218042
2250	0.00228944
2262	0.00228944
2274	0.00316161
2286	0.0041428
2298	0.00403378
2310	0.00337965
2322	0.00425182
2334	0.00250748
2346	0.00239846
2358	0.0041428
2370	0.0041428
2382	0.00501497
2394	0.00457888
2406	0.00403378
2418	0.00403378
2430	0.00337965
2442	0.00359769
2454	0.00327063
2466	0.00316161
2478	0.00337965
2490	0.00239846
2502	0.00174434
2514	0.00141727
2526	0.000981189
2538	0.000436084
2550	0.000218042
2562	0.000436084
2574	0.00109021
2586	0.00403378
2598	0.00665028
2610	0.00915776
2622	0.0113382
2634	0.0126464
2646	0.0128645
2658	0.0152629
2670	0.0152629
2682	0.0129735
2694	0.0126464
2706	0.0140637
2718	0.0162441
2730	0.0200599
2742	0.0240936
2754	0.025838
2766	0.0273643
2778	0.0278004
2790	0.0300898
2802	0.0357589
2814	0.0453527
2826	0.062469
2838	0.098446
2850	0.164513
2862	0.255654
2874	0.39204
2886	0.454291
2898	0.449494
2910	0.446223
2922	0.521447
2934	0.641698
2946	0.663066
2958	0.750719
2970	1.00801
2982	0.926242
2994	0.608446
3006	0.220331
3018	0.0630141
3030	0.0297627
3042	0.0235485
3054	0.0226764
3066	0.0240936
3078	0.0236576
3090	0.0233305
3102	0.0191877
3114	0.0152629
3126	0.0118833
3138	0.0113382
3150	0.0118833
3162	0.0131915
3174	0.0162441
3186	0.015699
3198	0.0152629
3210	0.0121013
3222	0.0114472
3234	0.00926678
3246	0.00610518
3258	0.00556007
3270	0.00457888
3282	0.00545105
3294	0.00425182
3306	0.00370671
3318	0.000763147
3330	0.00174434
3342	0.00109021
3354	0.00141727
3366	0.00185336
3378	0.00359769
3390	0.00534203
3402	0.0046879
3414	0.00545105
3426	0.00588713
3438	0.00534203
3450	0.00523301
3462	0.00632322
3474	0.00501497
3486	0.00327063
3498	0.00501497
3510	0.00196238
3522	0.00316161
3534	0.00327063
3546	0.00337965
3558	0.000545105
3570	0.00403378
3582	0.00272552
3594	0.00490595
3606	0.0067593
3618	0.0176614
3630	0.0401197
3642	0.0799124
3654	0.10575
3666	0.0972467
3678	0.0577811
3690	0.0186426
3702	0.0067593
3714	0.000436084
3726	0.00218042
3738	0.00141727
3750	0.0020714
3762	0.000109021
3774	0.000109021
3786	0.000109021
3798	0.000109021
3810	0.000109021
3822	0.000436084
3834	0.000109021
3846	0.00196238
3858	0.000545105
3870	0.000981189
3882	0.000109021
3894	0.00109021
3906	0.00174434
3918	0.000327063
3930	0.000109021
3942	0.00109021
3954	0.000763147
3966	0.0020714
