Infrared Spectrum: Aniline, N-benzylidene-p-chloro-,
Formula: C 13 H 10 Cl N
CAS: 780-21-2
Origin: Sadtler Research Labs Under US-EPA Contract
1/CM	ABSORBANCE
450	0.0167127
462	0.0106353
474	0.00719685
486	0.00607734
498	0.00079965
510	0.0211907
522	0.0833235
534	0.106433
546	0.0347048
558	0.00919598
570	0.00303867
582	0.00447804
594	0.0047979
606	0.00263884
618	0.0031986
630	0.00647717
642	0.0115949
654	0.0188717
666	0.0426213
678	0.130423
690	0.383112
702	0.185679
714	0.0899606
726	0.0437409
738	0.0738077
750	0.142098
762	0.0957181
774	0.0275879
786	0.0193515
798	0.0447004
810	0.116829
822	0.249331
834	0.202231
846	0.0761267
858	0.0378234
870	0.0560555
882	0.143377
894	0.0474992
906	0.0164728
918	0.011355
930	0.0079965
942	0.00703692
954	0.0124745
966	0.029667
978	0.0336653
990	0.0177522
1002	0.0463797
1014	0.231819
1026	0.0533367
1038	0.0119148
1050	0.0167926
1062	0.0376635
1074	0.0551758
1086	0.307865
1098	0.27332
1110	0.0996364
1122	0.0490185
1134	0.0224702
1146	0.0216705
1158	0.0619729
1170	0.352326
1182	0.203831
1194	0.25245
1206	0.0784457
1218	0.0664509
1230	0.0527769
1242	0.0407821
1254	0.0283876
1266	0.0233498
1278	0.0309465
1290	0.0298269
1302	0.0527769
1314	0.0786856
1326	0.032066
1338	0.0187918
1350	0.0161529
1362	0.0263085
1374	0.0270282
1386	0.0176723
1398	0.0199113
1410	0.018392
1422	0.0134341
1434	0.0211907
1446	0.0566152
1458	0.122266
1470	0.148895
1482	0.540403
1494	0.460359
1506	0.11443
1518	0.0414219
1530	0.0215106
1542	0.0172724
1554	0.0171925
1566	0.0386231
1578	0.15929
1590	0.111471
1602	0.0631724
1614	0.112191
1626	0.36584
1638	0.778379
1650	0.247252
1662	0.102435
1674	0.0490985
1686	0.0318261
1698	0.0244693
1710	0.0243094
1722	0.0298269
1734	0.0291872
1746	0.0211907
1758	0.0286275
1770	0.0208709
1782	0.0128744
1794	0.0110352
1806	0.020631
1818	0.0125545
1830	0.00951584
1842	0.00535766
1854	0.00679702
1866	0.0138339
1878	0.0239095
1890	0.0269482
1902	0.0187118
1914	0.00727681
1926	0.00863622
1938	0.0200712
1950	0.0179921
1962	0.0129543
1974	0.00927594
1986	0.00287874
1998	0.00343849
2010	0.00263884
2022	0.00311863
2034	0.00415818
2046	0.00695695
2058	0.00735678
2070	0.00743674
2082	0.00375835
2094	0.00231898
2106	0.00127944
2118	0.00063972
2130	7.9965e-05
2142	0.000399825
2154	0.000399825
2166	0.00031986
2178	0.00031986
2190	0.00031986
2202	0.000399825
2214	0.000239895
2226	0.000719685
2238	0.00079965
2250	0.0015993
2262	0.0031986
2274	0.00415818
2286	0.00391828
2298	0.00391828
2310	0.00623727
2322	0.00703692
2334	0.0047979
2346	0.00591741
2358	0.00599738
2370	0.00463797
2382	0.00535766
2394	0.00303867
2406	0.00271881
2418	0.00223902
2430	0.00151933
2442	0.00143937
2454	0.0029587
2466	0.00375835
2478	0.0031986
2490	0.00271881
2502	0.00263884
2514	0.00231898
2526	0.00207909
2538	0.00175923
2550	0.00239895
2562	0.00247891
2574	0.00335853
2586	0.0029587
2598	0.00287874
2610	0.00247891
2622	0.00167926
2634	0.00175923
2646	0.00183919
2658	0.00191916
2670	0.00279877
2682	0.0029587
2694	0.00303867
2706	0.00359842
2718	0.0063972
2730	0.00687699
2742	0.00511776
2754	0.00431811
2766	0.00551759
2778	0.00631724
2790	0.00743674
2802	0.0100756
2814	0.0139139
2826	0.0172724
2838	0.02279
2850	0.0435809
2862	0.0704492
2874	0.0910002
2886	0.0772462
2898	0.0393428
2910	0.0184719
2922	0.013594
2934	0.0147136
2946	0.0151933
2958	0.0126345
2970	0.0131942
2982	0.0154332
2994	0.0195115
3006	0.0271081
3018	0.0419816
3030	0.0967577
3042	0.100996
3054	0.0674905
3066	0.120507
3078	0.197594
3090	0.124026
3102	0.0790054
3114	0.0327057
3126	0.0100756
3138	0.00535766
3150	0.00583745
3162	0.00751671
3174	0.00359842
3186	0.0031986
3198	0.00391828
3210	0.00407821
3222	0.00391828
3234	0.004558
3246	0.00735678
3258	0.00887612
3270	0.00447804
3282	0.00207909
3294	0.0015993
3306	0.00119947
3318	0.00079965
3330	0.000559755
3342	0.00127944
3354	0.000719685
3366	0.000559755
3378	0.00151933
3390	0.000719685
3402	0.0015993
3414	0.00143937
3426	0.0015993
3438	0.00127944
3450	0.000559755
3462	0.00079965
3474	0.00063972
3486	0.000559755
3498	0.00151933
3510	0.00143937
3522	0.000239895
3534	0.000719685
3546	0.00031986
3558	0.00079965
3570	0.0015993
3582	0.00167926
3594	0.00167926
3606	0.00047979
3618	0.00127944
3630	0.00239895
3642	0.00207909
3654	0.00191916
3666	0.00207909
3678	0.00247891
3690	0.00255888
3702	0.00303867
3714	0.00231898
3726	0.00311863
3738	0.00215906
3750	0.00167926
3762	0.00183919
3774	0.00143937
3786	0.000399825
3798	0.00103955
3810	0.00015993
3822	0.00103955
3834	0.00151933
3846	0.000879615
3858	0.00095958
3870	0.0015993
3882	0.00143937
3894	0.0015993
3906	0.00287874
3918	0.00143937
3930	0.00063972
3942	0.000879615
3954	0.00167926
3966	0.00079965
