Infrared Spectrum: Acetyl chloride, chloro-
Formula: C 2 H 2 Cl 2 O
CAS: 79-04-9
Origin: Sadtler Research Labs Under US-EPA Contract
1/CM	ABSORBANCE
450	0.0933564
462	0.0342069
474	0.0313563
486	0.00926437
498	0.0175786
510	0.0175786
522	0.0129464
534	0.0429962
546	0.0853985
558	0.136115
570	0.157138
582	0.105471
594	0.075659
606	0.101077
618	0.155831
630	0.125544
642	0.0685326
654	0.0540422
666	0.04941
678	0.0603372
690	0.112717
702	0.428537
714	1.09189
726	1.02383
738	0.154287
750	0.120437
762	0.028387
774	0.127207
786	0.270686
798	0.201322
810	0.0276743
822	0.0205479
834	0.0108084
846	0.0155594
858	0.00677012
870	0.00677012
882	0.0091456
894	0.0209042
906	0.0548736
918	0.0648506
930	0.064138
942	0.162364
954	0.3391
966	0.399199
978	0.40787
990	0.434357
1002	0.342544
1014	0.207142
1026	0.252989
1038	0.353471
1050	0.352521
1062	0.149061
1074	0.0821916
1086	0.070433
1098	0.0631878
1110	0.0560613
1122	0.0443027
1134	0.0452529
1146	0.050479
1158	0.058318
1170	0.0780345
1182	0.108441
1194	0.105471
1206	0.0501226
1218	0.0369387
1230	0.0348008
1242	0.0318314
1254	0.0412146
1266	0.0486973
1278	0.0477471
1290	0.0301686
1302	0.0218544
1314	0.0175786
1326	0.0153218
1338	0.0119962
1350	0.0165096
1362	0.0187663
1374	0.025774
1386	0.0374138
1398	0.0539234
1410	0.0819541
1422	0.106065
1434	0.0566552
1446	0.0233985
1458	0.0123525
1470	0.0116399
1482	0.00962069
1494	0.0111648
1506	0.00807663
1518	0.00902682
1530	0.00439464
1542	0.0115211
1554	0.00783908
1566	0.00403832
1578	0.00736399
1590	0.00570115
1602	0.0102146
1614	0.00973947
1626	0.00605747
1638	0.0119962
1650	0.017341
1662	0.00581993
1674	0.0118774
1686	0.0171035
1698	0.0166284
1710	0.0116399
1722	0.0168659
1734	0.0216169
1746	0.0403832
1758	0.0744713
1770	0.172816
1782	0.445165
1794	0.685326
1806	0.798755
1818	0.851847
1830	1.05091
1842	0.929288
1854	0.302042
1866	0.0958506
1878	0.0416897
1890	0.0355134
1902	0.0368199
1914	0.0415709
1926	0.0475096
1938	0.0515479
1950	0.0460843
1962	0.033613
1974	0.0228046
1986	0.0146092
1998	0.00902682
2010	0.00700767
2022	0.00748276
2034	0.00736399
2046	0.00712644
2058	0.00677012
2070	0.00795786
2082	0.00795786
2094	0.00558238
2106	0.00475096
2118	0.00427586
2130	0.00391954
2142	0.00308812
2154	0.00296935
2166	0.00261303
2178	0.0032069
2190	0.00344445
2202	0.00356322
2214	0.00344445
2226	0.00356322
2238	0.00391954
2250	0.00427586
2262	0.00558238
2274	0.00605747
2286	0.00463219
2298	0.00439464
2310	0.00486973
2322	0.00605747
2334	0.0054636
2346	0.0108084
2358	0.00510728
2370	0.00629502
2382	0.00391954
2394	0.0027318
2406	0.00261303
2418	0.0027318
2430	0.00285058
2442	0.0027318
2454	0.00249425
2466	0.00237548
2478	0.00166284
2490	0.00178161
2502	0.00213793
2514	0.00190038
2526	0.00237548
2538	0.00261303
2550	0.00296935
2562	0.00225671
2574	0.00166284
2586	0.00142529
2598	0.00142529
2610	0.00130651
2622	0.00166284
2634	0.000712644
2646	0.00059387
2658	0.000712644
2670	0.000831418
2682	0.00237548
2694	0.00261303
2706	0.00415709
2718	0.00142529
2730	0.00380077
2742	0.00261303
2754	0.00617625
2766	0.00285058
2778	0.0091456
2790	0.00403832
2802	0.00807663
2814	0.00570115
2826	0.00605747
2838	0.00451341
2850	0.00225671
2862	0.00391954
2874	0.0027318
2886	0.00308812
2898	0.00213793
2910	0.00463219
2922	0.0104521
2934	0.0118774
2946	0.0187663
2958	0.0576054
2970	0.0764905
2982	0.0452529
2994	0.0150843
3006	0.00843295
3018	0.00985824
3030	0.00878928
3042	0.00486973
3054	0.00391954
3066	0.00380077
3078	0.00332567
3090	0.00308812
3102	0.00249425
3114	0.00249425
3126	0.00225671
3138	0.00213793
3150	0.00201916
3162	0.00261303
3174	0.00249425
3186	0.00225671
3198	0.00296935
3210	0.00237548
3222	0.00285058
3234	0.00285058
3246	0.00308812
3258	0.00249425
3270	0.00285058
3282	0.00249425
3294	0.00261303
3306	0.00285058
3318	0.00296935
3330	0.00296935
3342	0.0027318
3354	0.00249425
3366	0.00356322
3378	0.00415709
3390	0.0032069
3402	0.00332567
3414	0.00368199
3426	0.0032069
3438	0.00356322
3450	0.00391954
3462	0.00296935
3474	0.00403832
3486	0.00332567
3498	0.00391954
3510	0.00332567
3522	0.00451341
3534	0.00534483
3546	0.00700767
3558	0.0135402
3570	0.019954
3582	0.0171035
3594	0.0153218
3606	0.00938315
3618	0.0123525
3630	0.021023
3642	0.0180536
3654	0.0226858
3666	0.00724521
3678	0.00700767
3690	0.00795786
3702	0.00427586
3714	0.00665134
3726	0.00166284
3738	0.00510728
3750	0.0182912
3762	0.0027318
3774	0.00510728
3786	0.00249425
3798	0.00712644
3810	0.00154406
3822	0.0104521
3834	0.00486973
3846	0.00427586
3858	0.00878928
3870	0.0064138
3882	0.00570115
3894	0.00463219
3906	0.00748276
3918	0.00534483
3930	0.00617625
3942	0.0054636
3954	0.00819541
3966	0.00665134
