Infrared Spectrum: Ethene, tetrabromo-
Formula: C 2 Br 4
CAS: 79-28-7
Origin: Sadtler Research Labs Under US-EPA Contract
1/CM	ABSORBANCE
450	0.0119544
462	0.0123945
474	0.032563
486	0.0139346
498	0.0118811
510	0.0080674
522	0.0359366
534	0.0277225
546	0.00506046
558	0.0284559
570	0.0129812
582	0.0170882
594	0.0233221
606	0.010781
618	0.0227354
630	0.263657
642	0.183203
654	0.00528048
666	0.0266224
678	0.014448
690	0.0379168
702	0.0731933
714	0.0616056
726	0.0189217
738	0.0903549
750	0.277005
762	0.636738
774	0.575792
786	0.0893281
798	0.0140079
810	0.0269891
822	0.0246422
834	0.0321229
846	0.0810407
858	0.0709931
870	0.0113677
882	0.00432706
894	0.0200952
906	0.0143746
918	0.0169415
930	0.0173082
942	0.0232488
954	0.0121011
966	0.0110743
978	0.0113677
990	0.00982756
1002	0.0099009
1014	0.0159881
1026	0.0167949
1038	0.0154014
1050	0.0095342
1062	0.00682062
1074	0.0109277
1086	0.0101943
1098	0.0104143
1110	0.00909416
1122	0.0101209
1134	0.00718732
1146	0.00777404
1158	0.00718732
1170	0.00858078
1182	0.0066006
1194	0.0066006
1206	0.00674728
1218	0.00997424
1230	0.00726066
1242	0.00755402
1254	0.00682062
1266	0.00894748
1278	0.0058672
1290	0.00755402
1302	0.00667394
1314	0.00572052
1326	0.00872746
1338	0.00946086
1350	0.00689396
1362	0.0095342
1374	0.00652726
1386	0.00938752
1398	0.0080674
1410	0.00924084
1422	0.0104876
1434	0.0069673
1446	0.00887414
1458	0.0103409
1470	0.00748068
1482	0.00667394
1494	0.00858078
1506	0.00740734
1518	0.0088008
1530	0.00594054
1542	0.00799406
1554	0.007334
1566	0.00711398
1578	0.00542716
1590	0.00821408
1602	0.00777404
1614	0.00674728
1626	0.00652726
1638	0.00792072
1650	0.00689396
1662	0.00748068
1674	0.0062339
1686	0.00872746
1698	0.00887414
1710	0.00865412
1722	0.00858078
1734	0.0103409
1746	0.00960754
1758	0.0095342
1770	0.0095342
1782	0.00887414
1794	0.00755402
1806	0.00704064
1818	0.00608722
1830	0.00572052
1842	0.00711398
1854	0.00498712
1866	0.007334
1878	0.0062339
1890	0.00748068
1902	0.007334
1914	0.00564718
1926	0.007334
1938	0.00689396
1950	0.00689396
1962	0.00594054
1974	0.0058672
1986	0.0062339
1998	0.0055005
2010	0.00711398
2022	0.00520714
2034	0.0055005
2046	0.00645392
2058	0.0055005
2070	0.0066006
2082	0.00498712
2094	0.0062339
2106	0.00638058
2118	0.00572052
2130	0.00630724
2142	0.00557384
2154	0.00630724
2166	0.00638058
2178	0.0066006
2190	0.00557384
2202	0.00535382
2214	0.00682062
2226	0.00674728
2238	0.0055005
2250	0.00535382
2262	0.00564718
2274	0.0069673
2286	0.0100476
2298	0.015108
2310	0.0207552
2322	0.0198751
2334	0.0156214
2346	0.022442
2358	0.0223687
2370	0.0156948
2382	0.0157681
2394	0.0044004
2406	0.00491378
2418	0.00484044
2430	0.00462042
2442	0.00374034
2454	0.00410704
2466	0.0040337
2478	0.00337364
2490	0.00484044
2502	0.00491378
2514	0.00337364
2526	0.00315362
2538	0.00447374
2550	0.00344698
2562	0.00322696
2574	0.00308028
2586	0.00300694
2598	0.0029336
2610	0.00322696
2622	0.00300694
2634	0.0029336
2646	0.003667
2658	0.00249356
2670	0.00337364
2682	0.00322696
2694	0.00308028
2706	0.00271358
2718	0.00337364
2730	0.00425372
2742	0.00080674
2754	0.00337364
2766	0.00344698
2778	0.00212686
2790	0.00124678
2802	0.00234688
2814	0.00308028
2826	0.00374034
2838	0.0033003
2850	0.00264024
2862	0.00322696
2874	0.00447374
2886	0.00447374
2898	0.0044004
2910	0.00271358
2922	0.00337364
2934	0.00542716
2946	0.00542716
2958	0.00520714
2970	0.00388702
2982	0.00359366
2994	0.003667
3006	0.00227354
3018	0.00242022
3030	0.0014668
3042	0.00168682
3054	0.00557384
3066	0.00337364
3078	0.00344698
3090	0.00447374
3102	0.00117344
3114	0.00205352
3126	0.00322696
3138	0.00352032
3150	0.00352032
3162	0.00359366
3174	0.0044004
3186	0.0029336
3198	0.003667
3210	0.00425372
3222	0.00278692
3234	0.00271358
3246	0.00198018
3258	0.0044004
3270	0.00388702
3282	0.00234688
3294	0.0014668
3306	0.00381368
3318	0.00352032
3330	0.00542716
3342	0.0025669
3354	0.00286026
3366	0.00520714
3378	0.00542716
3390	0.00227354
3402	0.00506046
3414	0.00095342
3426	0.00308028
3438	0.00058672
3450	0.00557384
3462	0.0051338
3474	0.003667
3486	0.00249356
3498	0.00542716
3510	0.0025669
3522	0.00557384
3534	0.00528048
3546	0.0062339
3558	0.00344698
3570	0.00836076
3582	0.0066006
3594	0.00858078
3606	0.00300694
3618	0.00242022
3630	0.00762736
3642	0.00418038
3654	0.00528048
3666	0.00462042
3678	0.00271358
3690	0.00520714
3702	0.00557384
3714	0.00484044
3726	0.00755402
3738	0.00792072
3750	0.00667394
3762	0.0058672
3774	0.00432706
3786	0.00432706
3798	0.00278692
3810	0.00388702
3822	0.0058672
3834	0.00469376
3846	0.00249356
3858	0.00520714
3870	0.00161348
3882	0.00506046
3894	0.00242022
3906	0.00601388
3918	0.00425372
3930	0.00616056
3942	0.0055005
3954	0
3966	0.00044004
