Infrared Spectrum: Ethane, 1,1,2,2-tetrachloro-
Formula: C 2 H 2 Cl 4
CAS: 79-34-5
Origin: Sadtler Research Labs Under US-EPA Contract
1/CM	ABSORBANCE
450	0.0147634
462	0.0201647
474	0.0199847
486	0.0150335
498	0.012783
510	0.0201647
522	0.0304271
534	0.105235
546	0.195346
558	0.0613943
570	0.000630147
582	0.00810189
594	0.00783183
606	0.0117928
618	0.0110726
630	0.0302471
642	0.111446
654	0.202727
666	0.0775981
678	0.00126029
690	0.017284
702	0.0809289
714	0.320565
726	0.502857
738	0.739523
750	0.866092
762	0.782012
774	0.454066
786	0.316514
798	0.763558
810	0.753116
822	0.290048
834	0.0345681
846	0.012963
858	0.012783
870	0.0122429
882	0.00981229
894	0.00603141
906	0.00756176
918	0.00504118
930	0.00324076
942	0.00378088
954	0.0051312
966	0.012783
978	0.0204348
990	0.0152135
1002	0.0302471
1014	0.0697663
1026	0.0577035
1038	0.017194
1050	0.00423099
1062	0.0038709
1074	0.00594139
1086	0.0109826
1098	0.0117027
1110	0.00792185
1122	0.00711166
1134	0.00576134
1146	0.0105325
1158	0.012963
1170	0.0150335
1182	0.0544627
1194	0.17167
1206	0.240626
1218	0.118378
1230	0.0355583
1242	0.0246658
1254	0.0196246
1266	0.0168339
1278	0.114867
1290	0.101904
1302	0.0144034
1314	0.00360084
1326	0.00324076
1338	0.00378088
1350	0.00675158
1362	0.00495115
1374	0.00351082
1386	0.00261061
1398	0.000810189
1410	0.00252059
1422	0.00315073
1434	0.00198046
1446	0.00486113
1458	0.00882206
1470	0.00414097
1482	0.00324076
1494	0.00198046
1506	0.00324076
1518	0.00252059
1530	0.00270063
1542	0.00495115
1554	0.00108025
1566	0.00135031
1578	0.0038709
1590	0.00135031
1602	0.00306071
1614	0.0017104
1626	0.00090021
1638	0.00324076
1650	0.000540126
1662	0.00225052
1674	0.00153036
1686	0.00423099
1698	0.000990231
1710	0.00144034
1722	0.00180042
1734	0.00189044
1746	0.00261061
1758	0.00441103
1770	0.00666155
1782	0.00972227
1794	0.013053
1806	0.0109826
1818	0.00918214
1830	0.00630147
1842	0.00225052
1854	0.00306071
1866	0.00234055
1878	0.00297069
1890	0.00225052
1902	0.00243057
1914	0.00162038
1926	0.0017104
1938	0.00261061
1950	0.00252059
1962	0.00261061
1974	0.00252059
1986	0.00252059
1998	0.00234055
2010	0.00306071
2022	0.00378088
2034	0.00306071
2046	0.00279065
2058	0.00324076
2070	0.00297069
2082	0.00333078
2094	0.00369086
2106	0.00315073
2118	0.00234055
2130	0.00243057
2142	0.00225052
2154	0.00243057
2166	0.00243057
2178	0.00225052
2190	0.00180042
2202	0.00207048
2214	0.00234055
2226	0.00270063
2238	0.00270063
2250	0.00252059
2262	0.00234055
2274	0.0021605
2286	0.00207048
2298	0.00189044
2310	0.00225052
2322	0.00252059
2334	0.00198046
2346	0.00333078
2358	0.00297069
2370	0.00144034
2382	0.00243057
2394	0.00621145
2406	0.0072917
2418	0.00531124
2430	0.00702164
2442	0.00612143
2454	0.00378088
2466	0.00369086
2478	0.00522122
2490	0.00738172
2502	0.00459107
2514	0.00450105
2526	0.00459107
2538	0.00225052
2550	0.00126029
2562	0.000540126
2574	0.00162038
2586	0.000990231
2598	0.000450105
2610	0.00117027
2622	0.000360084
2634	0.000450105
2646	0.00144034
2658	0.00153036
2670	0.000810189
2682	0.000810189
2694	0.00126029
2706	0.000990231
2718	0.00198046
2730	0.00144034
2742	0.00144034
2754	0.00135031
2766	0.00117027
2778	0.00135031
2790	0.00135031
2802	0.000990231
2814	0.000540126
2826	0.000810189
2838	0.000720168
2850	0.000810189
2862	0.000540126
2874	0.00090021
2886	0.00135031
2898	0.000810189
2910	0.00135031
2922	0.00135031
2934	0.00117027
2946	0.00117027
2958	0.00117027
2970	0.00189044
2982	0.00918214
2994	0.0435702
3006	0.0510419
3018	0.021515
3030	0.00423099
3042	0.00153036
3054	0.000990231
3066	0.00243057
3078	0.00144034
3090	0.00126029
3102	0.00153036
3114	0.00189044
3126	0.00162038
3138	0.00153036
3150	0.00126029
3162	0.00180042
3174	0.0021605
3186	0.00234055
3198	0.00180042
3210	0.00234055
3222	0.00180042
3234	0.00243057
3246	0.0017104
3258	0.000720168
3270	0.00315073
3282	0.00270063
3294	0.00225052
3306	0.00252059
3318	0.00153036
3330	0.00207048
3342	0.00189044
3354	0.0017104
3366	0.00333078
3378	0.00189044
3390	0.00360084
3402	0.00198046
3414	0.00261061
3426	0.00180042
3438	0.00126029
3450	0.0017104
3462	0.00126029
3474	0.00279065
3486	0.00144034
3498	0.00207048
3510	0.00270063
3522	0.000720168
3534	0.00297069
3546	0.00162038
3558	0.00243057
3570	0.00477111
3582	0.00909212
3594	0.00486113
3606	0.00162038
3618	0.00144034
3630	0.00369086
3642	0.0017104
3654	0.000990231
3666	0.000180042
3678	0.00333078
3690	0.00153036
3702	0
3714	0.000990231
3726	0.00135031
3738	0.00225052
3750	0.000630147
3762	0.000450105
3774	0.00297069
3786	0.00234055
3798	0.00324076
3810	0.00162038
3822	0.00117027
3834	0.00126029
3846	0.000360084
3858	0
3870	0.000360084
3882	0
3894	0.000540126
3906	0
3918	0.000810189
3930	0
3942	0
3954	0.000810189
3966	0.00180042
