Infrared Spectrum: Phenol, 4,4'-(1-methylethylidene)bis-
Formula: C 15 H 16 O 2
CAS: 80-05-7
Origin: Sadtler Research Labs Under US-EPA Contract
1/CM	ABSORBANCE
450	0
462	0.0172266
474	0.0253959
486	0.0369396
498	0.0554093
510	0.0451089
522	0.0371763
534	0.0356372
546	0.0387155
558	0.0412018
570	0.0255143
582	0.0120764
594	0.0103005
606	0.005979
618	0.00361108
630	0.00568301
642	0.00455825
654	0.00739975
666	0.0231464
678	0.0363476
690	0.0707416
702	0.0276455
714	0.022436
726	0.0384787
738	0.0668937
750	0.137043
762	0.0677817
774	0.0351044
786	0.022436
798	0.0432737
810	0.0721624
822	0.109516
834	0.118751
846	0.0489567
858	0.0200089
870	0.0237384
882	0.0404322
894	0.0404322
906	0.0283558
918	0.0198313
930	0.0111884
942	0.0101229
954	0.00799173
966	0.00793253
978	0.00935328
990	0.012254
1002	0.016457
1014	0.0300726
1026	0.0235608
1038	0.0200681
1050	0.0209561
1062	0.0261063
1074	0.0293622
1086	0.0324997
1098	0.0339205
1110	0.0369396
1122	0.0378867
1134	0.0738791
1146	0.0973807
1158	0.158295
1170	0.466066
1182	0.491403
1194	0.253604
1206	0.149416
1218	0.0771942
1230	0.082818
1242	0.147403
1254	0.267989
1266	0.253367
1278	0.0724584
1290	0.0442801
1302	0.0422674
1314	0.0524494
1326	0.0834692
1338	0.0786149
1350	0.0629867
1362	0.0368804
1374	0.03469
1386	0.0396627
1398	0.0185882
1410	0.0214297
1422	0.0359332
1434	0.0345716
1446	0.041557
1458	0.0668345
1470	0.0763654
1482	0.1107
1494	0.151014
1506	0.221578
1518	0.214001
1530	0.0467664
1542	0.0223176
1554	0.0210153
1566	0.0313749
1578	0.0599676
1590	0.14391
1602	0.202812
1614	0.164038
1626	0.0723992
1638	0.0329733
1650	0.0148587
1662	0.0126092
1674	0.0101821
1686	0.00947168
1698	0.0114844
1710	0.0118988
1722	0.00704456
1734	0.00361108
1746	0.00799173
1758	0.0088205
1770	0.00816932
1782	0.0088797
1794	0.00728135
1806	0.00734055
1818	0.00834692
1830	0.00722216
1842	0.00846531
1854	0.00911649
1866	0.00745895
1878	0.00822852
1890	0.00769574
1902	0.00775494
1914	0.00816932
1926	0.00828772
1938	0.00828772
1950	0.005979
1962	0.00479504
1974	0.00485424
1986	0.00544622
1998	0.00544622
2010	0.00574221
2022	0.00455825
2034	0.00479504
2046	0.00520942
2058	0.00621579
2070	0.00716296
2082	0.00645258
2094	0.0058606
2106	0.00402546
2118	0.00390707
2130	0.00343348
2142	0.00331509
2154	0.00367028
2166	0.00372947
2178	0.00378867
2190	0.00414386
2202	0.00396627
2214	0.00432145
2226	0.00396627
2238	0.00432145
2250	0.00426226
2262	0.00473584
2274	0.00562381
2286	0.00734055
2298	0.0109516
2310	0.0133195
2322	0.0126092
2334	0.00982687
2346	0.0118396
2358	0.0105964
2370	0.00828772
2382	0.0100045
2394	0.00668937
2406	0.00775494
2418	0.00953088
2430	0.0118396
2442	0.0105964
2454	0.00763654
2466	0.00680777
2478	0.00645258
2490	0.00680777
2502	0.00799173
2514	0.0089389
2526	0.00716296
2538	0.0060382
2550	0.00568301
2562	0.00562381
2574	0.0058606
2586	0.00627499
2598	0.00663018
2610	0.00668937
2622	0.00645258
2634	0.00645258
2646	0.0060382
2658	0.00621579
2670	0.00574221
2682	0.00538702
2694	0.00574221
2706	0.00520942
2718	0.00556461
2730	0.00615659
2742	0.00627499
2754	0.00615659
2766	0.00639338
2778	0.00615659
2790	0.00645258
2802	0.00686697
2814	0.00668937
2826	0.00775494
2838	0.0088205
2850	0.0114844
2862	0.0181738
2874	0.0271127
2886	0.0282966
2898	0.0274087
2910	0.0299542
2922	0.0397811
2934	0.0507327
2946	0.0473584
2958	0.054699
2970	0.0948352
2982	0.0915793
2994	0.0407874
3006	0.0403138
3018	0.0533966
3030	0.0767206
3042	0.0846531
3054	0.0760694
3066	0.0723992
3078	0.0675449
3090	0.0701496
3102	0.04872
3114	0.0288294
3126	0.017049
3138	0.0110108
3150	0.00828772
3162	0.00674857
3174	0.00698536
3186	0.00710376
3198	0.00621579
3210	0.00645258
3222	0.00645258
3234	0.00674857
3246	0.00657098
3258	0.0058606
3270	0.00633419
3282	0.00615659
3294	0.005979
3306	0.00663018
3318	0.00550541
3330	0.00651178
3342	0.00751815
3354	0.00852451
3366	0.00828772
3378	0.00816932
3390	0.00745895
3402	0.00704456
3414	0.00615659
3426	0.00615659
3438	0.00704456
3450	0.00609739
3462	0.005979
3474	0.00562381
3486	0.00515023
3498	0.00408466
3510	0.00550541
3522	0.00455825
3534	0.00461744
3546	0.00497263
3558	0.00645258
3570	0.00763654
3582	0.00787333
3594	0.00816932
3606	0.00858371
3618	0.0117804
3630	0.0302502
3642	0.134675
3654	0.228504
3666	0.114252
3678	0.0207785
3690	0.00828772
3702	0.00663018
3714	0.0059198
3726	0.00668937
3738	0.0059198
3750	0.00509103
3762	0.00645258
3774	0.00609739
3786	0.00432145
3798	0.00609739
3810	0.005979
3822	0.00811013
3834	0.00479504
3846	0.00698536
3858	0.00663018
3870	0.010774
3882	0.00947168
3894	0.00668937
3906	0.00556461
3918	0.00627499
3930	0.00757734
3942	0.00734055
3954	0.0088797
3966	0.00627499
