Infrared Spectrum: Ethanol, 2-chloro-, 4-methylbenzenesulfonate
Formula: C 9 H 11 Cl O 3 S
CAS: 80-41-1
Origin: Sadtler Research Labs Under US-EPA Contract
1/CM	ABSORBANCE
450	0.0220754
462	0.00468905
474	0.0110641
486	0.0194411
498	0.0132242
510	0.0288192
522	0.0406736
534	0.0336137
546	0.0748668
558	0.150155
570	0.103423
582	0.0347201
594	0.0221808
606	0.00869319
618	0.0194938
630	0.0236033
642	0.0206529
654	0.0712842
666	0.134139
678	0.107163
690	0.0928854
702	0.0504205
714	0.0325599
726	0.0688079
738	0.153632
750	0.143306
762	0.0947821
774	0.082559
786	0.0830331
798	0.0966261
810	0.142463
822	0.121283
834	0.0688606
846	0.0392511
858	0.0376705
870	0.0625383
882	0.0830858
894	0.0887759
906	0.0531602
918	0.0318223
930	0.029873
942	0.0467325
954	0.0731809
966	0.120493
978	0.167173
990	0.17007
1002	0.139407
1014	0.164591
1026	0.0871426
1038	0.0622749
1050	0.0553203
1062	0.0650145
1074	0.0552676
1086	0.0448885
1098	0.0725486
1110	0.0517377
1122	0.0547408
1134	0.0280816
1146	0.0273967
1158	0.0437294
1170	0.0905672
1182	0.354103
1194	0.355789
1206	0.145308
1218	0.0824009
1230	0.0499463
1242	0.0333502
1254	0.0357738
1266	0.0358265
1278	0.0302418
1290	0.0315062
1302	0.035405
1314	0.0316643
1326	0.0224442
1338	0.0237087
1350	0.0346674
1362	0.0816633
1374	0.126078
1386	0.143569
1398	0.190829
1410	0.0794505
1422	0.0289773
1434	0.0288719
1446	0.0202841
1458	0.022813
1470	0.0236033
1482	0.0144886
1494	0.0277655
1506	0.0206529
1518	0.00732335
1530	0.00642769
1542	0.00874588
1554	0.00669112
1566	0.00816633
1578	0.0123285
1590	0.0183874
1602	0.0287139
1614	0.0226023
1626	0.00990497
1638	0.00721798
1650	0.0108006
1662	0.00542666
1674	0.00505786
1686	0.00479443
1698	0.00426757
1710	0.00621695
1722	0.00700724
1734	0.00658575
1746	0.00621695
1758	0.00626963
1770	0.00558472
1782	0.00669112
1794	0.00648038
1806	0.00532129
1818	0.00516323
1830	0.00484711
1842	0.00410951
1854	0.00421488
1866	0.00432025
1878	0.00437294
1890	0.0052686
1902	0.00584815
1914	0.00816633
1926	0.00800827
1938	0.00553203
1950	0.00374071
1962	0.00432025
1974	0.00521591
1986	0.00374071
1998	0.00426757
2010	0.00379339
2022	0.0033719
2034	0.00474174
2046	0.0033719
2058	0.00295042
2070	0.00479443
2082	0.00374071
2094	0.00379339
2106	0.00405682
2118	0.00326653
2130	0.00379339
2142	0.00421488
2154	0.00247624
2166	0.00258161
2178	0.00432025
2190	0.00416219
2202	0.00395145
2214	0.00374071
2226	0.0033719
2238	0.00426757
2250	0.00405682
2262	0.00295042
2274	0.0033719
2286	0.00537397
2298	0.00279236
2310	0.00247624
2322	0.00474174
2334	0.00152789
2346	0.000737604
2358	0.00616426
2370	0.00163327
2382	0.00368802
2394	0.00342459
2406	0.000842976
2418	0.00247624
2430	0.00247624
2442	0.00126446
2454	0.00247624
2466	0.00237087
2478	0.00237087
2490	0.00400414
2502	0.00284504
2514	0.00168595
2526	0.00295042
2538	0.00342459
2550	0.00200207
2562	0.0030031
2574	0.00484711
2586	0.00400414
2598	0.0048998
2610	0.00395145
2622	0.00231818
2634	0.00432025
2646	0.00363533
2658	0.00121178
2670	0.00347728
2682	0.00358265
2694	0.00316116
2706	0.00484711
2718	0.00242356
2730	0.00432025
2742	0.00674381
2754	0.00389876
2766	0.00305579
2778	0.00547934
2790	0.00468905
2802	0.00447831
2814	0.00421488
2826	0.00416219
2838	0.00684918
2850	0.0104845
2862	0.0115382
2874	0.0142252
2886	0.0195992
2898	0.0188089
2910	0.0179659
2922	0.0242356
2934	0.0299256
2946	0.0311901
2958	0.0307686
2970	0.0287139
2982	0.0300837
2994	0.0297676
3006	0.0217066
3018	0.0212325
3030	0.0259742
3042	0.0267118
3054	0.0269752
3066	0.0192831
3078	0.014594
3090	0.0131715
3102	0.0101157
3114	0.00621695
3126	0.00800827
3138	0.00705992
3150	0.00621695
3162	0.00579546
3174	0.00468905
3186	0.00421488
3198	0.0056374
3210	0.00569009
3222	0.00221281
3234	0.0048998
3246	0.00679649
3258	0.00331922
3270	0.00537397
3282	0.00569009
3294	0.00368802
3306	0.00616426
3318	0.0022655
3330	0.00136984
3342	0.00769216
3354	0.00484711
3366	0.00200207
3378	0.00648038
3390	0.00468905
3402	0.00426757
3414	0.00389876
3426	0.00142252
3438	0.0030031
3450	0.004531
3462	0.00221281
3474	0.00115909
3486	0.00511054
3498	0.00542666
3510	0.0030031
3522	0.00410951
3534	0.0033719
3546	0.00310847
3558	0.0052686
3570	0.00105372
3582	0.000895662
3594	0.00621695
3606	0.00421488
3618	0.00484711
3630	0.0060062
3642	0.00247624
3654	0.00611158
3666	0.0056374
3678	0.0018967
3690	0.00342459
3702	0.00479443
3714	0.00316116
3726	0.00384608
3738	0.00474174
3750	0.0056374
3762	0.00511054
3774	0.00468905
3786	0.00258161
3798	0.00421488
3810	0.00690187
3822	0.00426757
3834	0.00484711
3846	0.00569009
3858	0.00379339
3870	0.00574277
3882	0.00637501
3894	0.00200207
3906	0.00626963
3918	0.00858782
3930	0.00205475
3942	0.00474174
3954	0
3966	0.00052686
