Infrared Spectrum: Benzenesulfonic acid, 4-methyl-, ethyl ester
Formula: C 9 H 12 O 3 S
CAS: 80-40-0
Origin: Sadtler Research Labs Under US-EPA Contract
1/CM	ABSORBANCE
450	0
462	0.0327371
474	0.0455548
486	0.03802
498	0.0562939
510	0.0391459
522	0.0491056
534	0.0699776
546	0.125319
558	0.250724
570	0.251157
582	0.112848
594	0.0409646
606	0.0341228
618	0.0360281
630	0.026588
642	0.0497118
654	0.129909
666	0.240072
678	0.209067
690	0.19495
702	0.078465
714	0.0648679
726	0.0764731
738	0.197895
750	0.340881
762	0.306932
774	0.204304
786	0.123414
798	0.148616
810	0.20439
822	0.161867
834	0.0678125
846	0.0472003
858	0.0392325
870	0.063309
882	0.0943139
894	0.212358
906	0.502315
918	0.531328
930	0.266833
942	0.107998
954	0.0709303
966	0.0629626
978	0.0708437
990	0.121681
1002	0.276966
1014	0.463082
1026	0.347636
1038	0.194084
1050	0.113107
1062	0.0729223
1074	0.0655607
1086	0.0913693
1098	0.145411
1110	0.109124
1122	0.0912827
1134	0.0671197
1146	0.0649545
1158	0.0791579
1170	0.165764
1182	0.6188
1194	0.80942
1206	0.341574
1218	0.185077
1230	0.0988174
1242	0.0601912
1254	0.0372406
1266	0.029446
1278	0.0459012
1290	0.0392325
1302	0.0438226
1314	0.0445155
1326	0.0390593
1338	0.0517904
1350	0.107132
1362	0.224656
1374	0.334992
1386	0.437793
1398	0.383578
1410	0.159182
1422	0.0750874
1434	0.0527431
1446	0.0478931
1458	0.0466806
1470	0.0458146
1482	0.0450351
1494	0.0660804
1506	0.0502315
1518	0.032304
1530	0.0268479
1542	0.0236434
1554	0.023297
1566	0.025289
1578	0.0293594
1590	0.0431298
1602	0.0666866
1614	0.0500583
1626	0.0254622
1638	0.0245095
1650	0.0278005
1662	0.022431
1674	0.0206988
1686	0.0191399
1698	0.0181007
1710	0.0173212
1722	0.0170614
1734	0.0155891
1746	0.017581
1758	0.0190533
1770	0.0188801
1782	0.0181007
1794	0.0217381
1806	0.019573
1818	0.0148096
1830	0.013857
1842	0.0134239
1854	0.0130775
1866	0.0141168
1878	0.0149828
1890	0.0164551
1902	0.0199194
1914	0.0239033
1926	0.0187069
1938	0.0145498
1950	0.0127311
1962	0.0123847
1974	0.0121248
1986	0.0122981
1998	0.0120382
2010	0.0116052
2022	0.011432
2034	0.0113454
2046	0.0112588
2058	0.0113454
2070	0.0112588
2082	0.0113454
2094	0.011432
2106	0.0111722
2118	0.0112588
2130	0.0111722
2142	0.0106525
2154	0.0107391
2166	0.0105659
2178	0.0111722
2190	0.0116052
2202	0.011432
2214	0.0110856
2226	0.0108258
2238	0.0106525
2250	0.0108258
2262	0.010999
2274	0.011432
2286	0.0133373
2298	0.0150694
2310	0.0146364
2322	0.0129909
2334	0.0108258
2346	0.0154159
2358	0.00978648
2370	0.0135971
2382	0.0122981
2394	0.0108258
2406	0.0108258
2418	0.0103927
2430	0.00944005
2442	0.00978648
2454	0.00961327
2466	0.00935345
2478	0.00935345
2490	0.00926684
2502	0.00831418
2514	0.00909363
2526	0.00831418
2538	0.0086606
2550	0.00961327
2562	0.0100463
2574	0.0108258
2586	0.0101329
2598	0.00952666
2610	0.0086606
2622	0.00831418
2634	0.00753472
2646	0.00675527
2658	0.00640884
2670	0.0071883
2682	0.00770793
2694	0.00805436
2706	0.00874721
2718	0.00840078
2730	0.00900702
2742	0.00987308
2754	0.0107391
2766	0.0101329
2778	0.0109124
2790	0.0102195
2802	0.0105659
2814	0.0113454
2826	0.0126445
2838	0.0143766
2850	0.0184471
2862	0.028147
2874	0.0420905
2886	0.049452
2898	0.0477199
2910	0.0537823
2922	0.0702375
2934	0.10029
2946	0.110942
2958	0.0743946
2970	0.0713633
2982	0.0936211
2994	0.117351
3006	0.0940541
3018	0.069458
3030	0.0676393
3042	0.0710169
3054	0.0563805
3066	0.0426102
3078	0.0366343
3090	0.0225176
3102	0.0176676
3114	0.0130775
3126	0.0113454
3138	0.00969987
3150	0.00822757
3162	0.00848739
3174	0.00770793
3186	0.00770793
3198	0.00744812
3210	0.00675527
3222	0.0071883
3234	0.00710169
3246	0.00701509
3258	0.00744812
3270	0.00692848
3282	0.00701509
3294	0.00805436
3306	0.00779454
3318	0.0072749
3330	0.00796775
3342	0.00770793
3354	0.00796775
3366	0.00736151
3378	0.0072749
3390	0.00762133
3402	0.00814096
3414	0.00796775
3426	0.00779454
3438	0.00909363
3450	0.00770793
3462	0.00770793
3474	0.00796775
3486	0.00753472
3498	0.00744812
3510	0.00762133
3522	0.00675527
3534	0.0086606
3546	0.0072749
3558	0.00805436
3570	0.00744812
3582	0.00692848
3594	0.00744812
3606	0.00805436
3618	0.00814096
3630	0.00874721
3642	0.0071883
3654	0.00918024
3666	0.00918024
3678	0.00874721
3690	0.0072749
3702	0.00961327
3714	0.00900702
3726	0.00892042
3738	0.00744812
3750	0.00987308
3762	0.00857399
3774	0.00831418
3786	0.00805436
3798	0.00987308
3810	0.00969987
3822	0.0108258
3834	0.0110856
3846	0.00918024
3858	0.00762133
3870	0.0116918
3882	0.0109124
3894	0.00796775
3906	0.0115186
3918	0.00944005
3930	0.0112588
3942	0.00995969
3954	0.0122114
3966	0.00935345
