Infrared Spectrum: .alpha.-Pinene
Formula: C 10 H 16
CAS: 80-56-8
Origin: Sadtler Research Labs Under US-EPA Contract
1/CM	ABSORBANCE
450	0
462	0.0597757
474	0.0484336
486	0.0550243
498	0.036172
510	0.0551776
522	0.0496598
534	0.0493533
546	0.0501196
558	0.0479738
570	0.0580897
582	0.0479738
594	0.0473607
606	0.0449084
618	0.0554841
630	0.0530318
642	0.0430692
654	0.050886
666	0.0482804
678	0.0427626
690	0.0479738
702	0.0469009
714	0.0438355
726	0.0479738
738	0.058243
750	0.0470542
762	0.0683589
774	0.104224
786	0.152045
798	0.10545
810	0.0541047
822	0.0505794
834	0.053185
846	0.0541047
858	0.0560972
870	0.0718841
882	0.104837
894	0.0913495
906	0.0626878
918	0.0591626
930	0.062228
942	0.0671327
954	0.0781682
966	0.0628411
978	0.0502729
990	0.052572
1002	0.0634542
1014	0.0798542
1026	0.0821533
1038	0.0680523
1050	0.0611551
1062	0.0596224
1074	0.0663663
1086	0.0830729
1098	0.0826131
1110	0.0740299
1122	0.0780149
1134	0.0698916
1146	0.0527252
1158	0.0603888
1170	0.0663663
1182	0.0628411
1194	0.0703514
1206	0.091043
1218	0.0961009
1230	0.0714243
1242	0.0554841
1254	0.0625346
1266	0.0724972
1278	0.0614617
1290	0.0554841
1302	0.0567103
1314	0.0606953
1326	0.0743364
1338	0.0804673
1350	0.0680523
1362	0.10637
1374	0.190976
1386	0.186071
1398	0.0990131
1410	0.058243
1422	0.0705047
1434	0.121084
1446	0.183312
1458	0.184232
1470	0.158329
1482	0.113727
1494	0.0643738
1506	0.0439888
1518	0.040157
1530	0.0386243
1542	0.0390841
1554	0.0426093
1566	0.0470542
1578	0.047514
1590	0.0442953
1602	0.044142
1614	0.0456748
1626	0.0479738
1638	0.0495065
1650	0.0560972
1662	0.0616149
1674	0.0519589
1686	0.0465944
1698	0.0551776
1710	0.056557
1722	0.0495065
1734	0.0488934
1746	0.0455215
1758	0.0415364
1770	0.0415364
1782	0.0395439
1794	0.0370916
1806	0.036172
1818	0.0358654
1830	0.0363252
1842	0.0360187
1854	0.0360187
1866	0.0360187
1878	0.0357121
1890	0.0358654
1902	0.0350991
1914	0.0349458
1926	0.0354056
1938	0.0360187
1950	0.0358654
1962	0.0358654
1974	0.0358654
1986	0.0358654
1998	0.0363252
2010	0.0358654
2022	0.0355589
2034	0.0364785
2046	0.0366318
2058	0.036785
2070	0.0360187
2082	0.0358654
2094	0.0358654
2106	0.0358654
2118	0.0358654
2130	0.0358654
2142	0.0358654
2154	0.0358654
2166	0.0358654
2178	0.0358654
2190	0.0350991
2202	0.0350991
2214	0.0357121
2226	0.0349458
2238	0.0346392
2250	0.034486
2262	0.0346392
2274	0.0347925
2286	0.0352523
2298	0.0357121
2310	0.0352523
2322	0.0355589
2334	0.0343327
2346	0.0349458
2358	0.0358654
2370	0.0357121
2382	0.036785
2394	0.0355589
2406	0.0350991
2418	0.0349458
2430	0.0349458
2442	0.0350991
2454	0.0350991
2466	0.0360187
2478	0.036172
2490	0.0366318
2502	0.0364785
2514	0.0366318
2526	0.0366318
2538	0.036785
2550	0.0369383
2562	0.0369383
2574	0.0373981
2586	0.0372449
2598	0.0366318
2610	0.036172
2622	0.0375514
2634	0.0381645
2646	0.0387776
2658	0.0416897
2670	0.0413832
2682	0.0386243
2694	0.0383177
2706	0.0400037
2718	0.0455215
2730	0.0553308
2742	0.0568635
2754	0.0488934
2766	0.0495065
2778	0.0492
2790	0.0504262
2802	0.0574766
2814	0.0666729
2826	0.0862916
2838	0.18929
2850	0.292135
2862	0.294434
2874	0.421035
2886	0.618295
2898	0.648336
2910	0.735241
2922	1.37515
2934	1.373
2946	0.874718
2958	0.799155
2970	0.712557
2982	0.644351
2994	0.682209
3006	0.379806
3018	0.167372
3030	0.211821
3042	0.153118
3054	0.080314
3066	0.0778617
3078	0.0755626
3090	0.0619215
3102	0.0556374
3114	0.054871
3126	0.0527252
3138	0.0496598
3150	0.0487402
3162	0.0452149
3174	0.0404635
3186	0.0383177
3198	0.0364785
3210	0.036785
3222	0.0373981
3234	0.0363252
3246	0.0349458
3258	0.0357121
3270	0.0352523
3282	0.0358654
3294	0.0350991
3306	0.0364785
3318	0.036172
3330	0.0360187
3342	0.0366318
3354	0.0358654
3366	0.0366318
3378	0.0366318
3390	0.0363252
3402	0.0364785
3414	0.0366318
3426	0.0358654
3438	0.0360187
3450	0.036172
3462	0.0363252
3474	0.0347925
3486	0.0357121
3498	0.0357121
3510	0.0360187
3522	0.0358654
3534	0.036785
3546	0.0363252
3558	0.0350991
3570	0.0364785
3582	0.0366318
3594	0.0358654
3606	0.0357121
3618	0.0358654
3630	0.0383177
3642	0.0403103
3654	0.0381645
3666	0.0354056
3678	0.0349458
3690	0.034486
3702	0.0357121
3714	0.0352523
3726	0.0378579
3738	0.0372449
3750	0.0355589
3762	0.0366318
3774	0.0358654
3786	0.036172
3798	0.0360187
3810	0.0373981
3822	0.0366318
3834	0.0378579
3846	0.0369383
3858	0.0369383
3870	0.0354056
3882	0.0357121
3894	0.0393906
3906	0.036785
3918	0.0357121
3930	0.0383177
3942	0.0373981
3954	0.0352523
3966	0.0358654
