Infrared Spectrum: Cyclohexanemethanamine, 4-amino-.alpha.,.alpha.,4-trimethyl-
Formula: C 10 H 22 N 2
CAS: 80-52-4
Origin: Sadtler Research Labs Under US-EPA Contract
1/CM	ABSORBANCE
450	0.00620986
462	0.0113288
474	0.0201401
486	0.0263499
498	0.0190492
510	0.00923087
522	0.0207275
534	0.0083917
546	0.0135106
558	0.0118323
570	0.00772036
582	0.0122519
594	0.0271891
606	0.0198883
618	0.0116645
630	0.0109931
642	0.00847562
654	0.016196
666	0.0193009
678	0.0240003
690	0.0343221
702	0.0379305
714	0.0598328
726	0.0623503
738	0.0632734
750	0.133092
762	0.202995
774	0.254101
786	0.340535
798	0.374689
810	0.307808
822	0.159358
834	0.10112
846	0.0790498
858	0.0478327
870	0.0294549
882	0.0155246
894	0.0234968
906	0.0203918
918	0.025259
930	0.0401962
942	0.0164477
954	0.0130071
966	0.0194687
978	0.0168673
990	0.0217345
1002	0.0178743
1014	0.0198883
1026	0.0156925
1038	0.0125876
1050	0.0093987
1062	0.0113288
1074	0.0132589
1086	0.0146855
1098	0.0169512
1110	0.0213988
1122	0.0438047
1134	0.053623
1146	0.0435529
1158	0.0558048
1170	0.0624342
1182	0.0771197
1194	0.12126
1206	0.112617
1218	0.0822387
1230	0.0543782
1242	0.0286996
1254	0.0194687
1266	0.0229093
1278	0.0207275
1290	0.0286157
1302	0.0315528
1314	0.0391053
1326	0.0409515
1338	0.0244198
1350	0.0287835
1362	0.101707
1374	0.17782
1386	0.157596
1398	0.0474131
1410	0.0140141
1422	0.0160281
1434	0.0406158
1446	0.1007
1458	0.129232
1470	0.113624
1482	0.0587419
1494	0.0270213
1506	0.0234128
1518	0.0237485
1530	0.0234968
1542	0.0233289
1554	0.0240003
1566	0.0238324
1578	0.0324759
1590	0.0486719
1602	0.0816512
1614	0.13712
1626	0.140981
1638	0.0777911
1650	0.0378466
1662	0.0239163
1674	0.015189
1686	0.0149372
1698	0.0136785
1710	0.0115805
1722	0.0120001
1734	0.0106575
1746	0.00881129
1758	0.0088952
1770	0.00855953
1782	0.00931479
1794	0.00923087
1806	0.0088952
1818	0.00805603
1830	0.00646161
1842	0.00763645
1854	0.00662944
1866	0.0073847
1878	0.00604202
1890	0.00595811
1902	0.00528677
1914	0.00579027
1926	0.00486719
1938	0.00461544
1950	0.00545461
1962	0.00537069
1974	0.00528677
1986	0.00486719
1998	0.0049511
2010	0.00453152
2022	0.00453152
2034	0.00411193
2046	0.00478327
2058	0.00427977
2070	0.00436368
2082	0.00402802
2094	0.00453152
2106	0.00427977
2118	0.0039441
2130	0.00419585
2142	0.00402802
2154	0.0039441
2166	0.00419585
2178	0.00335668
2190	0.00377627
2202	0.00335668
2214	0.00377627
2226	0.00402802
2238	0.0034406
2250	0.00386018
2262	0.00352451
2274	0.0039441
2286	0.00335668
2298	0.00151051
2310	0.000335668
2322	0.00226576
2334	0.00436368
2346	0.00125876
2358	0.00478327
2370	0.00268534
2382	0.00201401
2394	0.00427977
2406	0.00377627
2418	0.00318885
2430	0.00352451
2442	0.00386018
2454	0.00386018
2466	0.00402802
2478	0.00411193
2490	0.00461544
2502	0.00461544
2514	0.00436368
2526	0.00419585
2538	0.00377627
2550	0.00377627
2562	0.00427977
2574	0.00436368
2586	0.00587419
2598	0.00629378
2610	0.00713294
2622	0.00855953
2634	0.00855953
2646	0.00914695
2658	0.00923087
2670	0.00931479
2682	0.0093987
2694	0.0107414
2706	0.0113288
2718	0.0130911
2730	0.0150211
2742	0.013175
2754	0.0117484
2766	0.012084
2778	0.0125876
2790	0.0162799
2802	0.0204757
2814	0.0305458
2826	0.0516929
2838	0.112617
2850	0.271639
2862	0.293877
2874	0.336172
2886	0.318381
2898	0.328367
2910	0.563335
2922	0.638441
2934	0.700455
2946	0.753155
2958	0.822303
2970	0.750721
2982	0.439222
2994	0.16582
3006	0.0442243
3018	0.0217345
3030	0.0170352
3042	0.0125036
3054	0.00813995
3066	0.00721686
3078	0.00688119
3090	0.00629378
3102	0.00662944
3114	0.00654553
3126	0.00704903
3138	0.00813995
3150	0.00822387
3162	0.00956654
3174	0.00872737
3186	0.00872737
3198	0.00948262
3210	0.00948262
3222	0.00864345
3234	0.00688119
3246	0.00662944
3258	0.00662944
3270	0.00570636
3282	0.00520285
3294	0.00654553
3306	0.00931479
3318	0.0208114
3330	0.0286996
3342	0.019217
3354	0.0106575
3366	0.00755253
3378	0.00679728
3390	0.00872737
3402	0.00780428
3414	0.00620986
3426	0.00520285
3438	0.00595811
3450	0.00679728
3462	0.00637769
3474	0.00486719
3486	0.00545461
3498	0.00469935
3510	0.00553852
3522	0.00503502
3534	0.00427977
3546	0.00587419
3558	0.00503502
3570	0.0049511
3582	0.00302101
3594	0.00537069
3606	0.00469935
3618	0.00637769
3630	0.0049511
3642	0.00520285
3654	0.00125876
3666	0.00377627
3678	0.00595811
3690	0.00478327
3702	0.00553852
3714	0.00545461
3726	0.0083917
3738	0.00704903
3750	0.00159442
3762	0.00629378
3774	0.00537069
3786	0.00662944
3798	0.00436368
3810	0.00629378
3822	0.00234968
3834	0.00478327
3846	0.00419585
3858	0.00780428
3870	0.00461544
3882	0.00587419
3894	0.00847562
3906	0.00671336
3918	0.00419585
3930	0.00730078
3942	0.00553852
3954	0.00285318
3966	0.00545461
