Infrared Spectrum: 2-Bromobutyric acid
Formula: C 4 H 7 Br O 2
CAS: 80-58-0
Origin: Sadtler Research Labs Under US-EPA Contract
1/CM	ABSORBANCE
450	0
462	0.009369
474	0.018127
486	0.0192472
498	0.0240335
510	0.0373742
522	0.0573342
534	0.0838119
546	0.1164
558	0.124954
570	0.109882
582	0.125565
594	0.149089
606	0.174956
618	0.192166
630	0.201739
642	0.167522
654	0.10978
666	0.0891074
678	0.0670087
690	0.0320787
702	0.0224041
714	0.0199601
726	0.0224041
738	0.0349301
750	0.0484744
762	0.0475579
774	0.0510203
786	0.033708
798	0.0169049
810	0.0233207
822	0.0216913
834	0.0113039
846	0.014359
858	0.0253574
870	0.0282088
882	0.018738
894	0.0129333
906	0.0156829
918	0.0250519
930	0.0307548
942	0.021895
954	0.010591
966	0.00641573
978	0.00631389
990	0.00651757
1002	0.00865614
1014	0.0160902
1026	0.0276997
1038	0.0355411
1050	0.051835
1062	0.104077
1074	0.176585
1086	0.262536
1098	0.332498
1110	0.307955
1122	0.353374
1134	0.398081
1146	0.296448
1158	0.281172
1170	0.220273
1182	0.159579
1194	0.154996
1206	0.114567
1218	0.0616114
1230	0.0439936
1242	0.0475579
1254	0.0586581
1266	0.0660922
1278	0.0806549
1290	0.0875798
1302	0.0803494
1314	0.0869688
1326	0.112224
1338	0.109882
1350	0.0909404
1362	0.100004
1374	0.114974
1386	0.128009
1398	0.0990874
1410	0.0400219
1422	0.0223023
1434	0.0253574
1446	0.0440954
1458	0.0626298
1470	0.0604912
1482	0.0290235
1494	0.0103874
1506	0.0054992
1518	0.00488818
1530	0.00366613
1542	0.00315695
1554	0.00590655
1566	0.00600838
1578	0.00590655
1590	0.0054992
1602	0.00509185
1614	0.00692492
1626	0.00631389
1638	0.0066194
1650	0.00621206
1662	0.0074341
1674	0.00600838
1686	0.00947084
1698	0.0108966
1710	0.0232188
1722	0.0511222
1734	0.0951158
1746	0.141248
1758	0.268239
1770	0.6486
1782	1.01837
1794	0.531385
1806	0.218033
1818	0.112835
1830	0.0575379
1842	0.028107
1854	0.0150719
1866	0.0107947
1878	0.0103874
1890	0.0082488
1902	0.00733226
1914	0.00682308
1926	0.00621206
1938	0.00733226
1950	0.00712859
1962	0.00672124
1974	0.00702675
1986	0.0066194
1998	0.00600838
2010	0.0066194
2022	0.00641573
2034	0.00631389
2046	0.0066194
2058	0.00611022
2070	0.00580471
2082	0.00580471
2094	0.00539736
2106	0.0054992
2118	0.00600838
2130	0.00570287
2142	0.00580471
2154	0.00570287
2166	0.00590655
2178	0.00672124
2190	0.00712859
2202	0.00723043
2214	0.00763777
2226	0.0074341
2238	0.00651757
2250	0.00621206
2262	0.00590655
2274	0.00539736
2286	0.0054992
2298	0.00570287
2310	0.00641573
2322	0.00611022
2334	0.00488818
2346	0.00560103
2358	0.00560103
2370	0.00539736
2382	0.00641573
2394	0.00631389
2406	0.00651757
2418	0.00712859
2430	0.00682308
2442	0.00692492
2454	0.00712859
2466	0.00753594
2478	0.0074341
2490	0.00733226
2502	0.00702675
2514	0.00723043
2526	0.00692492
2538	0.00672124
2550	0.0066194
2562	0.00651757
2574	0.00692492
2586	0.00631389
2598	0.00621206
2610	0.00621206
2622	0.00621206
2634	0.00641573
2646	0.0066194
2658	0.0066194
2670	0.00641573
2682	0.00672124
2694	0.00702675
2706	0.00682308
2718	0.00702675
2730	0.00692492
2742	0.00773961
2754	0.00896166
2766	0.00967451
2778	0.00865614
2790	0.00947084
2802	0.00967451
2814	0.0101837
2826	0.0112021
2838	0.0132388
2850	0.0178215
2862	0.0259684
2874	0.0341154
2886	0.0630371
2898	0.0694528
2910	0.0487799
2922	0.0546865
2934	0.0691473
2946	0.101328
2958	0.100208
2970	0.112224
2982	0.2162
2994	0.165892
3006	0.0551957
3018	0.0240335
3030	0.0183307
3042	0.0160902
3054	0.01497
3066	0.0145627
3078	0.0152755
3090	0.0150719
3102	0.0135443
3114	0.0126278
3126	0.0127296
3138	0.012526
3150	0.0129333
3162	0.0127296
3174	0.0124241
3186	0.0117113
3198	0.0106929
3210	0.00987819
3222	0.00916533
3234	0.00916533
3246	0.00875798
3258	0.00855431
3270	0.00855431
3282	0.00835063
3294	0.00814696
3306	0.00773961
3318	0.00733226
3330	0.00733226
3342	0.00723043
3354	0.00672124
3366	0.00672124
3378	0.00651757
3390	0.00611022
3402	0.00631389
3414	0.00672124
3426	0.00672124
3438	0.00611022
3450	0.00631389
3462	0.00611022
3474	0.00773961
3486	0.010591
3498	0.0196545
3510	0.0235243
3522	0.0208766
3534	0.0223023
3546	0.0228115
3558	0.0405311
3570	0.276386
3582	0.394924
3594	0.120677
3606	0.0156829
3618	0.0107947
3630	0.00967451
3642	0.00692492
3654	0.00611022
3666	0.00702675
3678	0.00621206
3690	0.00733226
3702	0.00641573
3714	0.00712859
3726	0.00733226
3738	0.00855431
3750	0.00773961
3762	0.00651757
3774	0.00682308
3786	0.00631389
3798	0.00631389
3810	0.00753594
3822	0.00682308
3834	0.0066194
3846	0.00641573
3858	0.00753594
3870	0.00621206
3882	0.00712859
3894	0.00753594
3906	0.00773961
3918	0.00712859
3930	0.00723043
3942	0.00631389
3954	0.00641573
3966	0.00814696
