Infrared Spectrum: Propanoic acid, 2-hydroxy-2-methyl-, ethyl ester
Formula: C 6 H 12 O 3
CAS: 80-55-7
Origin: Sadtler Research Labs Under US-EPA Contract
1/CM	ABSORBANCE
450	0.0659957
462	0.0199012
474	0.0125846
486	0.00204865
498	0.0250228
510	0.0212181
522	0.0196085
534	0.0207791
546	0.0181452
558	0.0256081
570	0.039656
582	0.0379
594	0.0487286
606	0.0708247
618	0.0519479
630	0.0269251
642	0.0193158
654	0.0130235
666	0.0160965
678	0.0137552
690	0.0139015
702	0.0130235
714	0.0119992
726	0.0117066
738	0.0139015
750	0.0178525
762	0.0389243
774	0.0563378
786	0.031754
798	0.0201938
810	0.0203401
822	0.0216571
834	0.0199012
846	0.0222425
858	0.036144
870	0.0583865
882	0.0417046
894	0.0295591
906	0.0349733
918	0.0263398
930	0.0207791
942	0.0286811
954	0.0525332
966	0.117505
978	0.159063
990	0.0940915
1002	0.0602888
1014	0.112383
1026	0.197548
1038	0.160087
1050	0.0703857
1062	0.0493139
1074	0.0560452
1086	0.0807753
1098	0.133162
1110	0.223888
1122	0.338173
1134	0.440752
1146	0.592791
1158	0.69376
1170	0.839799
1182	1.4102
1194	1.14534
1206	0.391731
1218	0.248618
1230	0.243057
1242	0.338027
1254	0.578011
1266	0.584743
1278	0.273348
1290	0.139308
1302	0.126577
1314	0.101847
1326	0.073166
1338	0.0724343
1350	0.0986278
1362	0.142235
1374	0.16755
1386	0.193744
1398	0.123943
1410	0.0737513
1422	0.0585328
1434	0.0566305
1446	0.0758
1458	0.112676
1470	0.153795
1482	0.108725
1494	0.0438996
1506	0.0204865
1518	0.0168282
1530	0.0153649
1542	0.0144869
1554	0.0105359
1566	0.00760926
1578	0.00863359
1590	0.00702394
1602	0.00643861
1614	0.00702394
1626	0.00570695
1638	0.00819459
1650	0.00673127
1662	0.00951158
1674	0.0149259
1686	0.0266324
1698	0.0408266
1710	0.0597035
1722	0.14443
1734	0.505138
1746	0.862188
1758	0.602303
1770	0.315053
1782	0.152332
1794	0.0763853
1806	0.0465336
1818	0.0279494
1830	0.0127309
1842	0.00614594
1854	0.00482896
1866	0.00570695
1878	0.0068776
1890	0.0068776
1902	0.00673127
1914	0.00424363
1926	0.0032193
1938	0.00380463
1950	0.00292664
1962	0.00351197
1974	0.00336564
1986	0.00307297
1998	0.0040973
2010	0.00512162
2022	0.00482896
2034	0.00438996
2046	0.00351197
2058	0.00204865
2070	0.00160965
2082	0.00146332
2094	0.00248764
2106	0.0036583
2118	0.00263398
2130	0.00307297
2142	0.00395096
2154	0.00336564
2166	0.00336564
2178	0.00190232
2190	0.00131699
2202	0.00146332
2214	0.00160965
2226	0.00146332
2238	0.00219498
2250	0.00219498
2262	0.00160965
2274	0.00234131
2286	0.00190232
2298	0.00102432
2310	0.00073166
2322	0
2334	0
2346	0.00175598
2358	0.000146332
2370	0.0036583
2382	0.00438996
2394	0.0036583
2406	0.0036583
2418	0.00497529
2430	0.00453629
2442	0.00512162
2454	0.0040973
2466	0.0032193
2478	0.00351197
2490	0.00307297
2502	0.00351197
2514	0.00395096
2526	0.0036583
2538	0.00336564
2550	0.00336564
2562	0.00351197
2574	0.0032193
2586	0.00307297
2598	0.00278031
2610	0.00351197
2622	0.00526795
2634	0.00453629
2646	0.00468262
2658	0.00482896
2670	0.00263398
2682	0.00102432
2694	0.00131699
2706	0.00219498
2718	0.00351197
2730	0.00585328
2742	0.00614594
2754	0.0068776
2766	0.00702394
2778	0.00717027
2790	0.00848726
2802	0.00995058
2814	0.0119992
2826	0.0143405
2838	0.0152185
2850	0.0184378
2862	0.0285347
2874	0.0523869
2886	0.0837019
2898	0.0864822
2910	0.0894089
2922	0.101408
2934	0.140479
2946	0.200621
2958	0.166233
2970	0.179988
2982	0.403876
2994	0.543184
3006	0.295737
3018	0.100384
3030	0.0421436
3042	0.0216571
3054	0.0143405
3066	0.0100969
3078	0.00877992
3090	0.00936525
3102	0.00951158
3114	0.00834092
3126	0.00834092
3138	0.0068776
3150	0.00643861
3162	0.0077556
3174	0.00790193
3186	0.00790193
3198	0.00936525
3210	0.00863359
3222	0.00907258
3234	0.00804826
3246	0.00702394
3258	0.00468262
3270	0.00556062
3282	0.0036583
3294	0.0040973
3306	0.00292664
3318	0.00175598
3330	0.00453629
3342	0.00351197
3354	0.00278031
3366	0.00248764
3378	0.00351197
3390	0.00292664
3402	0.00204865
3414	0.00248764
3426	0.0032193
3438	0.00380463
3450	0.00512162
3462	0.00804826
3474	0.0109749
3486	0.00995058
3498	0.00965791
3510	0.00951158
3522	0.00760926
3534	0.0103896
3546	0.0247301
3558	0.0850189
3570	0.16755
3582	0.156722
3594	0.0813606
3606	0.0305834
3618	0.0223888
3630	0.0456556
3642	0.0528259
3654	0.0207791
3666	0.00980424
3678	0.0114139
3690	0.0109749
3702	0.00702394
3714	0.00863359
3726	0.00585328
3738	0.00526795
3750	0.0077556
3762	0.0068776
3774	0.00541428
3786	0.00614594
3798	0.00790193
3810	0.0068776
3822	0.00819459
3834	0.00717027
3846	0.00921892
3858	0.00980424
3870	0.00951158
3882	0.00965791
3894	0.00995058
3906	0.00673127
3918	0.00585328
3930	0.0077556
3942	0.00717027
3954	0.00790193
3966	0.00585328
