Infrared Spectrum: 2-Propenoic acid, 2-methyl-, methyl ester
Formula: C 5 H 8 O 2
CAS: 80-62-6
Origin: Sadtler Research Labs Under US-EPA Contract
1/CM	ABSORBANCE
450	0
462	0.0588416
474	0.0380317
486	0.0764223
498	0.070861
510	0.0593797
522	0.0597385
534	0.0443106
546	0.04449
558	0.0525627
570	0.0502306
582	0.0694259
594	0.0792926
606	0.0647616
618	0.0539979
630	0.0583034
642	0.0778574
654	0.084495
666	0.0783956
678	0.0608149
690	0.05041
702	0.0462839
714	0.0448487
726	0.0453869
738	0.0452075
750	0.0468221
762	0.0482573
774	0.0466427
786	0.0550743
798	0.086289
810	0.170066
822	0.193029
834	0.13939
846	0.0740901
858	0.0561506
870	0.0545361
882	0.0534597
894	0.0547155
906	0.0694259
918	0.143695
930	0.259943
942	0.332778
954	0.171681
966	0.0900563
978	0.079472
990	0.100282
1002	0.13652
1014	0.181548
1026	0.176166
1038	0.100461
1050	0.0595591
1062	0.0565094
1074	0.0599179
1086	0.0676319
1098	0.0800102
1110	0.094003
1122	0.118759
1134	0.220835
1146	0.628779
1158	1.57939
1170	1.79395
1182	1.06274
1194	0.875089
1206	0.768887
1218	0.410815
1230	0.204152
1242	0.132573
1254	0.101717
1266	0.100641
1278	0.169887
1290	0.42391
1302	0.629138
1314	0.706278
1326	0.630573
1338	0.425884
1350	0.161814
1362	0.10082
1374	0.118759
1386	0.131676
1398	0.155894
1410	0.163429
1422	0.166479
1434	0.27573
1446	0.385161
1458	0.303895
1470	0.242542
1482	0.136878
1494	0.0814453
1506	0.0748077
1518	0.0701434
1530	0.0645822
1542	0.065838
1554	0.0629676
1566	0.0627883
1578	0.0688877
1590	0.0694259
1602	0.0746283
1614	0.0950793
1626	0.135264
1638	0.188365
1650	0.180471
1662	0.0974115
1674	0.0687083
1686	0.094003
1698	0.109969
1710	0.154459
1722	0.422116
1734	1.12247
1746	1.4879
1758	0.977882
1770	0.268734
1782	0.0995642
1794	0.0905945
1806	0.0755253
1818	0.0557918
1830	0.0450281
1842	0.0452075
1854	0.0462839
1866	0.0547155
1878	0.0611737
1890	0.0593797
1902	0.0487954
1914	0.0428754
1926	0.0416196
1938	0.0414402
1950	0.041799
1962	0.043593
1974	0.0482573
1986	0.0518452
1998	0.0536391
2010	0.0536391
2022	0.0500512
2034	0.0439518
2046	0.0401845
2058	0.0376729
2070	0.0362378
2082	0.0382111
2094	0.0398257
2106	0.0405433
2118	0.0398257
2130	0.0394669
2142	0.0405433
2154	0.0409021
2166	0.0387493
2178	0.0365966
2190	0.0346232
2202	0.0333675
2214	0.0335469
2226	0.0337263
2238	0.0339057
2250	0.0344438
2262	0.0335469
2274	0.0328293
2286	0.0330087
2298	0.034085
2310	0.0356996
2322	0.036776
2334	0.0339057
2346	0.0333675
2358	0.0346232
2370	0.0296002
2382	0.0313941
2394	0.0328293
2406	0.0321117
2418	0.0321117
2430	0.0317529
2442	0.0317529
2454	0.0317529
2466	0.0321117
2478	0.0319323
2490	0.0317529
2502	0.0315735
2514	0.0312147
2526	0.0310353
2538	0.0308559
2550	0.0313941
2562	0.0328293
2574	0.0330087
2586	0.0317529
2598	0.0319323
2610	0.0315735
2622	0.0310353
2634	0.0303178
2646	0.0301384
2658	0.0304972
2670	0.029959
2682	0.029959
2694	0.0301384
2706	0.0297796
2718	0.0301384
2730	0.0312147
2742	0.0331881
2754	0.0331881
2766	0.0335469
2778	0.0335469
2790	0.0337263
2802	0.034982
2814	0.0369554
2826	0.0428754
2838	0.0613531
2850	0.0875448
2862	0.0929266
2874	0.0748077
2886	0.0782162
2898	0.0900563
2910	0.107996
2922	0.123783
2934	0.176166
2946	0.229446
2958	0.351973
2970	0.362019
2982	0.247206
2994	0.238416
3006	0.210251
3018	0.175269
3030	0.139211
3042	0.114275
3054	0.0834187
3066	0.0674525
3078	0.058124
3090	0.058124
3102	0.072655
3114	0.0766017
3126	0.0597385
3138	0.0409021
3150	0.0376729
3162	0.0351614
3174	0.0335469
3186	0.0319323
3198	0.0306765
3210	0.0301384
3222	0.0301384
3234	0.0306765
3246	0.0294208
3258	0.0306765
3270	0.0304972
3282	0.0301384
3294	0.0308559
3306	0.0301384
3318	0.0303178
3330	0.0304972
3342	0.0312147
3354	0.0321117
3366	0.0331881
3378	0.0328293
3390	0.0330087
3402	0.0321117
3414	0.0317529
3426	0.0315735
3438	0.0326499
3450	0.0355202
3462	0.042696
3474	0.0443106
3486	0.0394669
3498	0.0321117
3510	0.0303178
3522	0.029959
3534	0.0308559
3546	0.0317529
3558	0.0308559
3570	0.0308559
3582	0.0308559
3594	0.0303178
3606	0.0319323
3618	0.0319323
3630	0.0310353
3642	0.0310353
3654	0.0310353
3666	0.0317529
3678	0.0303178
3690	0.0310353
3702	0.0308559
3714	0.0313941
3726	0.0317529
3738	0.0331881
3750	0.0301384
3762	0.0303178
3774	0.0308559
3786	0.0313941
3798	0.0335469
3810	0.0301384
3822	0.0313941
3834	0.0328293
3846	0.0326499
3858	0.0308559
3870	0.0322911
3882	0.0322911
3894	0.0313941
3906	0.0319323
3918	0.0317529
3930	0.0337263
3942	0.0330087
3954	0.034085
3966	0.0322911
