Infrared Spectrum: Benzene, 1,3-dichloro-2-(dichloromethyl)-
Formula: C 7 H 4 Cl 4
CAS: 81-19-6
Origin: Sadtler Research Labs Under US-EPA Contract
1/CM	ABSORBANCE
450	0.0335743
462	0.0163485
474	0.0302249
486	0.00861289
498	0.00334946
510	0.00988888
522	0.0110054
534	0.00645967
546	0.0076559
558	0.00510394
570	0.00861289
582	0.00869264
594	0.00821415
606	0.0100484
618	0.0177043
630	0.04131
642	0.0126003
654	0.0106864
666	0.0145143
678	0.0303844
690	0.0745653
702	0.38439
714	0.206709
726	0.105189
738	0.0527938
750	0.0264767
762	0.0314211
774	0.105907
786	0.67667
798	0.483279
810	0.0826997
822	0.0251209
834	0.0511191
846	0.136371
858	0.182067
870	0.0354883
882	0.00988888
894	0.00733691
906	0.00773565
918	0.00486469
930	0.00318996
942	0.00342921
954	0.0035887
966	0.00350896
978	0.00534318
990	0.0035887
1002	0.00311021
1014	0.00446594
1026	0.0039077
1038	0.00701791
1050	0.00558243
1062	0.00398745
1074	0.016189
1086	0.0334148
1098	0.115716
1110	0.0507204
1122	0.00972938
1134	0.00637992
1146	0.0320591
1158	0.0599712
1170	0.0480886
1182	0.143468
1194	0.057499
1206	0.0871657
1218	0.0499229
1230	0.138763
1242	0.0479291
1254	0.00845339
1266	0.00462544
1278	0.00606092
1290	0.00318996
1302	0.00630017
1314	0.0165878
1326	0.00933063
1338	0.00582168
1350	0.0035887
1362	0.0035887
1374	0.00446594
1386	0.00693816
1398	0.00701791
1410	0.0166675
1422	0.0520761
1434	0.203599
1446	0.315726
1458	0.0197778
1470	0.0136371
1482	0.0146738
1494	0.023526
1506	0.0194588
1518	0.0126003
1530	0.00845339
1542	0.0194588
1554	0.0709766
1566	0.204397
1578	0.170025
1590	0.0682651
1602	0.0197778
1614	0.00917114
1626	0.00637992
1638	0.0079749
1650	0.00925088
1662	0.00949013
1674	0.0110851
1686	0.00749641
1698	0.00653942
1710	0.00334946
1722	0.00366845
1734	0.00749641
1746	0.00470519
1758	0.00350896
1770	0.00438619
1782	0.0100484
1794	0.00701791
1806	0.00247222
1818	0.00191398
1830	0.00287096
1842	0.00326971
1854	0.00677866
1866	0.00956988
1878	0.00263172
1890	0.00215322
1902	0.00119623
1914	0.00279122
1926	0.00637992
1938	0.0136371
1950	0.00263172
1962	0.00103674
1974	0.000956988
1986	0.00119623
1998	0.000637992
2010	0.000877239
2022	0.00119623
2034	0.000956988
2046	0.00143548
2058	0.00135573
2070	0.00111649
2082	0.000877239
2094	0.000558243
2106	0.000637992
2118	0.000398745
2130	7.9749e-05
2142	7.9749e-05
2154	0.000717741
2166	0.000478494
2178	0.000558243
2190	0.00079749
2202	0.000717741
2214	0.000877239
2226	0.00111649
2238	0.000956988
2250	0.00151523
2262	0.00167473
2274	0.00159498
2286	0.00191398
2298	0.00318996
2310	0.00382795
2322	0.00366845
2334	0.00247222
2346	0.00183423
2358	0.00279122
2370	0.00079749
2382	0.000956988
2394	0.00127598
2406	0.00119623
2418	0.00167473
2430	0.00159498
2442	0.0035887
2454	0.00175448
2466	0.00127598
2478	0.00199373
2490	0.00191398
2502	0.00119623
2514	0.00135573
2526	0.00143548
2538	0.00159498
2550	0.00183423
2562	0.000956988
2574	0.000478494
2586	0.000956988
2598	0.000956988
2610	0.00143548
2622	0.00207347
2634	0.00231272
2646	0.00318996
2658	0.0042267
2670	0.0037482
2682	0.00247222
2694	0.00103674
2706	0.000558243
2718	0.000159498
2730	0.00079749
2742	0.000717741
2754	0.000877239
2766	0.000956988
2778	0.00111649
2790	0.000956988
2802	0.00151523
2814	0.00119623
2826	0.000717741
2838	0.00103674
2850	0.000717741
2862	0.000637992
2874	0.000956988
2886	0.00159498
2898	0.00215322
2910	0.00183423
2922	0.00135573
2934	0.00143548
2946	0.00183423
2958	0.00318996
2970	0.00279122
2982	0.00350896
2994	0.00366845
3006	0.00199373
3018	0.00103674
3030	0.00135573
3042	0.00494444
3054	0.020336
3066	0.016827
3078	0.0200967
3090	0.0137168
3102	0.00183423
3114	0.00239247
3126	0.00366845
3138	0.00494444
3150	0.00191398
3162	7.9749e-05
3174	0.000717741
3186	0.000637992
3198	0.000478494
3210	0.00151523
3222	0.00127598
3234	0.00191398
3246	0.00135573
3258	0.000877239
3270	0.00135573
3282	0.00143548
3294	0.00111649
3306	0.00127598
3318	0.00143548
3330	0.00103674
3342	0.000637992
3354	0.00103674
3366	0.000877239
3378	0.00127598
3390	0.000637992
3402	0.00111649
3414	0.00167473
3426	0.000717741
3438	0.00127598
3450	0.00183423
3462	0.00191398
3474	0.00135573
3486	0.00183423
3498	0.00239247
3510	0.00159498
3522	0.00231272
3534	0.00231272
3546	0.00287096
3558	0.00271147
3570	0.00271147
3582	0.00223297
3594	0.00295071
3606	0.00215322
3618	0.00279122
3630	0.00334946
3642	0.00311021
3654	0.00223297
3666	0.00111649
3678	0.00303046
3690	0.00295071
3702	0.00231272
3714	0.00207347
3726	0.00175448
3738	0.00199373
3750	0.00207347
3762	0.00167473
3774	0.00263172
3786	0.000956988
3798	0.00167473
3810	0.00151523
3822	0.00303046
3834	0.00342921
3846	0.00430645
3858	0.00303046
3870	0.00350896
3882	0.00318996
3894	0.0039077
3906	0.0039077
3918	0.0037482
3930	0.00430645
3942	0.00350896
3954	0.000717741
3966	0.00151523
