Infrared Spectrum: 8-Pentadecanone
Formula: C 15 H 30 O
CAS: 818-23-5
Origin: Sadtler Research Labs Under US-EPA Contract
1/CM	ABSORBANCE
450	0
462	0.046755
474	0.0469771
486	0.0539737
498	0.0621919
510	0.05464
522	0.0641909
534	0.0583049
546	0.0547511
558	0.0561948
570	0.0581939
582	0.0529742
594	0.0597487
606	0.0556396
618	0.0583049
630	0.0538626
642	0.0548622
654	0.0523078
666	0.0494204
678	0.0529742
690	0.0556396
702	0.0595266
714	0.0676337
726	0.0699659
738	0.0664121
750	0.0636357
762	0.0593044
774	0.0596376
786	0.0566391
798	0.0588602
810	0.0563059
822	0.0568612
834	0.0543069
846	0.0587492
858	0.0591934
870	0.0589713
882	0.0640799
894	0.0528631
906	0.0554174
918	0.0587492
930	0.05464
942	0.0569722
954	0.0576386
966	0.0600818
978	0.0635246
990	0.0671895
1002	0.0688553
1014	0.0717428
1026	0.0708544
1038	0.0764072
1050	0.0801832
1062	0.0832927
1074	0.0892898
1086	0.0886235
1098	0.0835149
1110	0.0835149
1122	0.091622
1134	0.0999513
1146	0.0906225
1158	0.0847365
1170	0.0824043
1182	0.0852918
1194	0.0827375
1206	0.0814048
1218	0.0758519
1230	0.0764072
1242	0.074075
1254	0.0735197
1266	0.0790726
1278	0.0788505
1290	0.0850697
1302	0.0854028
1314	0.0870687
1326	0.0874019
1338	0.102283
1350	0.126383
1362	0.131825
1374	0.106837
1386	0.0901783
1398	0.0758519
1410	0.0825154
1422	0.0881793
1434	0.0907336
1446	0.112723
1458	0.148594
1470	0.128826
1482	0.0805163
1494	0.0617477
1506	0.0556396
1518	0.0519747
1530	0.0490872
1542	0.0540848
1554	0.0474213
1566	0.0476435
1578	0.0476435
1590	0.0446449
1602	0.0444228
1614	0.048754
1626	0.0479766
1638	0.0461997
1650	0.0483098
1662	0.0515304
1674	0.0553064
1686	0.0659679
1698	0.0827375
1710	0.145263
1722	0.286638
1734	0.210564
1746	0.101284
1758	0.0766293
1770	0.0705212
1782	0.068189
1794	0.0574165
1806	0.0531963
1818	0.0485319
1830	0.0453113
1842	0.0439786
1854	0.0424238
1866	0.0419795
1878	0.0420906
1890	0.0418685
1902	0.0418685
1914	0.0416464
1926	0.0410911
1938	0.0405358
1950	0.0407579
1962	0.0416464
1974	0.0410911
1986	0.0399805
1998	0.0403137
2010	0.0413132
2022	0.0412021
2034	0.0412021
2046	0.0414243
2058	0.0412021
2070	0.0406469
2082	0.0410911
2094	0.0407579
2106	0.040869
2118	0.0404247
2130	0.0404247
2142	0.0406469
2154	0.0405358
2166	0.0407579
2178	0.0400916
2190	0.0405358
2202	0.0400916
2214	0.0402026
2226	0.0403137
2238	0.0398695
2250	0.0399805
2262	0.0395363
2274	0.0395363
2286	0.0400916
2298	0.0404247
2310	0.0402026
2322	0.0385368
2334	0.0392031
2346	0.03887
2358	0.0385368
2370	0.040869
2382	0.0404247
2394	0.0398695
2406	0.0397584
2418	0.0400916
2430	0.0396473
2442	0.0396473
2454	0.0395363
2466	0.0398695
2478	0.0398695
2490	0.0400916
2502	0.0400916
2514	0.0404247
2526	0.040869
2538	0.0412021
2550	0.0417574
2562	0.0414243
2574	0.0420906
2586	0.0426459
2598	0.0430901
2610	0.0439786
2622	0.0446449
2634	0.0453113
2646	0.046755
2658	0.0476435
2670	0.0491983
2682	0.0505309
2694	0.0501978
2706	0.0503088
2718	0.0501978
2730	0.0508641
2742	0.0521968
2754	0.0529742
2766	0.0541958
2778	0.0567501
2790	0.0620809
2802	0.0696327
2814	0.0791836
2826	0.0933989
2838	0.120941
2850	0.206899
2862	0.427569
2874	0.402026
2886	0.334948
2898	0.330506
2910	0.447893
2922	0.731088
2934	1.11057
2946	0.833039
2958	0.564281
2970	0.500312
2982	0.241882
2994	0.134601
3006	0.0960643
3018	0.0777399
3030	0.0674116
3042	0.0609703
3054	0.0556396
3066	0.0523078
3078	0.0513083
3090	0.0494204
3102	0.0481987
3114	0.0468661
3126	0.0460887
3138	0.0450891
3150	0.044867
3162	0.0445339
3174	0.0444228
3186	0.0432012
3198	0.042868
3210	0.0416464
3222	0.0417574
3234	0.0407579
3246	0.0404247
3258	0.0406469
3270	0.0404247
3282	0.040869
3294	0.0410911
3306	0.0402026
3318	0.0403137
3330	0.0405358
3342	0.0407579
3354	0.0414243
3366	0.0402026
3378	0.040869
3390	0.0412021
3402	0.0422017
3414	0.0424238
3426	0.0436454
3438	0.0432012
3450	0.0419795
3462	0.0410911
3474	0.0399805
3486	0.0397584
3498	0.0386478
3510	0.0395363
3522	0.0400916
3534	0.0403137
3546	0.0396473
3558	0.0405358
3570	0.0446449
3582	0.0439786
3594	0.0407579
3606	0.0386478
3618	0.0404247
3630	0.0419795
3642	0.0407579
3654	0.0426459
3666	0.0397584
3678	0.0427569
3690	0.0422017
3702	0.0402026
3714	0.04098
3726	0.0394252
3738	0.0417574
3750	0.0415353
3762	0.0416464
3774	0.0418685
3786	0.0425348
3798	0.0395363
3810	0.0385368
3822	0.0423127
3834	0.0420906
3846	0.0414243
3858	0.0438675
3870	0.0422017
3882	0.0429791
3894	0.0402026
3906	0.0446449
3918	0.0407579
3930	0.0386478
3942	0.0424238
3954	0.0394252
3966	0.0466439
