Infrared Spectrum: 1-Octyn-3-0l
Formula: C 8 H 14 O
CAS: 818-72-4
Origin: Sadtler Research Labs Under US-EPA Contract
1/CM	ABSORBANCE
450	0.00696984
462	0.00244304
474	0.00574832
486	0.00725725
498	0.00352085
510	0.00467051
522	0.00747282
534	0.0156642
546	0.0465614
558	0.0403819
570	0.0160953
582	0.00919731
594	0.00689798
606	0.0081195
618	0.0776742
630	0.316517
642	0.227059
654	0.310194
666	0.197527
678	0.0390886
690	0.00704169
702	0.00560461
714	0.00589203
726	0.0124307
738	0.0127182
750	0.00582017
762	0.00661057
774	0.00603574
786	0.00402382
798	0.00675428
810	0.00804765
822	0.00876619
834	0.0089099
846	0.00855063
858	0.0130774
870	0.0177479
882	0.0278794
894	0.030035
906	0.0281668
918	0.0294601
930	0.0409568
942	0.0523097
954	0.0515912
966	0.0485014
978	0.0578425
990	0.0826321
1002	0.108068
1014	0.176402
1026	0.275129
1038	0.278434
1050	0.210173
1062	0.152115
1074	0.102392
1086	0.0707043
1098	0.052166
1110	0.0650279
1122	0.0786083
1134	0.0605011
1146	0.0399508
1158	0.0350648
1170	0.0339869
1182	0.0335558
1194	0.0405257
1206	0.0492918
1218	0.0577706
1230	0.0648123
1242	0.0872308
1254	0.154845
1266	0.130271
1278	0.0781053
1290	0.0690517
1302	0.0682613
1314	0.0855063
1326	0.0960688
1338	0.103039
1350	0.117122
1362	0.126679
1374	0.137241
1386	0.127685
1398	0.0749437
1410	0.0436872
1422	0.0347055
1434	0.0387293
1446	0.0553994
1458	0.0852907
1470	0.0873745
1482	0.0438309
1494	0.0164546
1506	0.00926917
1518	0.00682613
1530	0.00481422
1542	0.00416753
1554	0.0026586
1566	0.00258674
1578	0.00251489
1590	0.00244304
1602	0.00208377
1614	0.00201191
1626	0.00129337
1638	0.00136523
1650	0.00100596
1662	0.00143708
1674	0.00222747
1686	0.00632315
1698	0.0155205
1710	0.0165983
1722	0.0071854
1734	0.00474236
1746	0.00747282
1758	0.00840692
1770	0.00510163
1782	0.00481422
1794	0.00330528
1806	0.00194006
1818	0.000934102
1830	0.000431124
1842	0.000646686
1854	0.000574832
1866	0.00071854
1878	0.000646686
1890	0.00035927
1902	0.000287416
1914	0.000215562
1926	0.000502978
1938	0.000502978
1950	0.000431124
1962	0.00071854
1974	0.00035927
1986	0.000502978
1998	0.000862248
2010	0.000934102
2022	0.00150893
2034	0.00194006
2046	0.00229933
2058	0.00244304
2070	0.00229933
2082	0.00337714
2094	0.00589203
2106	0.00617944
2118	0.00438309
2130	0.00251489
2142	0.00122152
2154	0.000862248
2166	0.000431124
2178	0.000287416
2190	0.000287416
2202	0.000502978
2214	7.1854e-05
2226	0.000431124
2238	0.000287416
2250	0.000431124
2262	0.000646686
2274	0.00107781
2286	0.00136523
2298	0.00258674
2310	0.00373641
2322	0.00488607
2334	0.00567647
2346	0.00467051
2358	0.0054609
2370	0.0053172
2382	0.00308972
2394	0.00179635
2406	0.00194006
2418	0.00143708
2430	0.00150893
2442	0.00122152
2454	0.00136523
2466	0.00150893
2478	0.00150893
2490	0.00129337
2502	0.00136523
2514	0.00143708
2526	0.00194006
2538	0.00208377
2550	0.00244304
2562	0.00301787
2574	0.00366455
2586	0.00395197
2598	0.00445495
2610	0.00459866
2622	0.00502978
2634	0.00589203
2646	0.00661057
2658	0.00761652
2670	0.00970029
2682	0.00948473
2694	0.00970029
2706	0.00855063
2718	0.00847877
2730	0.0102751
2742	0.0124307
2754	0.0119278
2766	0.0109218
2778	0.0117122
2790	0.0146582
2802	0.0188257
2814	0.0230651
2826	0.0301068
2838	0.0460584
2850	0.0981526
2862	0.230579
2874	0.32478
2886	0.309116
2898	0.230148
2910	0.269812
2922	0.432202
2934	0.645177
2946	0.70884
2958	0.574473
2970	0.571096
2982	0.264926
2994	0.0798298
3006	0.0444058
3018	0.0317595
3030	0.0247896
3042	0.0181791
3054	0.0132211
3066	0.0106344
3078	0.00941287
3090	0.00833506
3102	0.00711355
3114	0.00639501
3126	0.0054609
3138	0.00474236
3150	0.00438309
3162	0.00423939
3174	0.00380826
3186	0.0035927
3198	0.00316158
3210	0.00215562
3222	0.00122152
3234	0.000502978
3246	0.000646686
3258	0.00194006
3270	0.00431124
3282	0.0127182
3294	0.0298913
3306	0.0837099
3318	0.166198
3330	0.302433
3342	0.0611478
3354	0.0161671
3366	0.0100596
3378	0.00596388
3390	0.00344899
3402	0.00215562
3414	0.00208377
3426	0.00129337
3438	0.0017245
3450	0.00150893
3462	0.00114966
3474	0.0017245
3486	0.00222747
3498	0.00244304
3510	0.00301787
3522	0.00237118
3534	0.00150893
3546	0.000431124
3558	0.000287416
3570	0.000574832
3582	0.00179635
3594	0.000934102
3606	0.00143708
3618	0.00445495
3630	0.0153049
3642	0.0797579
3654	0.140331
3666	0.0493637
3678	0.0101314
3690	0.00251489
3702	0.00215562
3714	0.00114966
3726	0.000790394
3738	0.000143708
3750	0.00071854
3762	0.00294601
3774	0.0026586
3786	0.00280231
3798	0.00344899
3810	0.00208377
3822	0.00158079
3834	0.00143708
3846	0.00201191
3858	0.00122152
3870	0.00229933
3882	0.00129337
3894	0.00100596
3906	0.000502978
3918	0.00114966
3930	0.00071854
3942	0.00301787
3954	0.00208377
3966	0.00143708
