Infrared Spectrum: Benzene, pentachloronitro-
Formula: C 6 Cl 5 N O 2
CAS: 82-68-8
Origin: Sadtler Research Labs Under US-EPA Contract
1/CM	ABSORBANCE
450	0.000413904
462	0.00631204
474	0.0218334
486	0.00186257
498	0.00134519
510	0.0129345
522	0.00465642
534	0.0047599
546	0.0102441
558	0.0358027
570	0.0115893
582	0.0110719
594	0.0111754
606	0.0109685
618	0.0126241
630	0.015004
642	0.0268003
654	0.28042
666	0.213574
678	0.199191
690	0.114444
702	0.0374583
714	0.0224543
726	0.0144866
738	0.0118997
750	0.00962327
762	0.00610508
774	0.0306289
786	0.119101
798	0.0424252
810	0.0257655
822	0.0111754
834	0.0110719
846	0.0107615
858	0.0112789
870	0.00879546
882	0.00713984
894	0.00962327
906	0.0189361
918	0.0568083
930	0.103683
942	0.0209022
954	0.00931284
966	0.00589813
978	0.00631204
990	0.00827808
1002	0.00765722
1014	0.00869198
1026	0.00962327
1038	0.0100372
1050	0.00848503
1062	0.00631204
1074	0.00651899
1086	0.00486337
1098	0.00672594
1110	0.00962327
1122	0.0364236
1134	0.0100372
1146	0.00320776
1158	0.00507032
1170	0.00755375
1182	0.0116928
1194	0.0223508
1206	0.0325949
1218	0.0587744
1230	0.0394244
1242	0.0179013
1254	0.0099337
1266	0.0073468
1278	0.00983022
1290	0.0186257
1302	0.0499789
1314	0.155628
1326	0.511896
1338	0.686874
1350	0.360717
1362	0.56353
1374	0.245031
1386	0.0412869
1398	0.0263864
1410	0.0156249
1422	0.0221439
1434	0.023696
1446	0.0101406
1458	0.0135554
1470	0.0135554
1482	0.015004
1494	0.02173
1506	0.0584639
1518	0.0711915
1530	0.0567048
1542	0.0630169
1554	0.18129
1566	0.831844
1578	0.422493
1590	0.0735714
1602	0.0346645
1614	0.0387
1626	0.0634308
1638	0.0261794
1650	0.0229717
1662	0.00424252
1674	0.0109685
1686	0.012831
1698	0.0153144
1710	0.00858851
1722	0.00786418
1734	0.00941632
1746	0.00713984
1758	0.00641551
1770	0.00724332
1782	0.00486337
1794	0.00569118
1806	0.00362166
1818	0.00393209
1830	0.00724332
1842	0.00227647
1854	0.002173
1866	0.00424252
1878	0.00155214
1890	0.00331123
1902	0.00196604
1914	0.00206952
1926	0.00289733
1938	0.00248342
1950	0.00206952
1962	0.00103476
1974	0.002173
1986	0.00269038
1998	0.00227647
2010	0.0025869
2022	0.00320776
2034	0.0025869
2046	0.00113824
2058	0.00051738
2070	0.000103476
2082	0
2094	0.000310428
2106	0.000724332
2118	0.000724332
2130	0.00103476
2142	0.00144866
2154	0.00155214
2166	0.00175909
2178	0.00206952
2190	0.00186257
2202	0.00196604
2214	0.002173
2226	0.00227647
2238	0.00165562
2250	0.00175909
2262	0.00144866
2274	0.00103476
2286	0.0025869
2298	0.00434599
2310	0.00755375
2322	0.00610508
2334	0.00341471
2346	0.00941632
2358	0.00320776
2370	0.00983022
2382	0.00579466
2394	0.00134519
2406	0.00124171
2418	0.00144866
2430	0.00165562
2442	0.00175909
2454	0.00134519
2466	0.000724332
2478	0.000931284
2490	0.00155214
2502	0.00175909
2514	0.000931284
2526	0.000724332
2538	0.00144866
2550	0.00206952
2562	0.00227647
2574	0.0025869
2586	0.00248342
2598	0.00237995
2610	0.00196604
2622	0.00175909
2634	0.00155214
2646	0.00206952
2658	0.00269038
2670	0.00351818
2682	0.00413904
2694	0.00631204
2706	0.00569118
2718	0.00465642
2730	0.00651899
2742	0.00693289
2754	0.00496685
2766	0.00382861
2778	0.00382861
2790	0.00382861
2802	0.00424252
2814	0.00351818
2826	0.00331123
2838	0.0030008
2850	0.00331123
2862	0.00393209
2874	0.00579466
2886	0.00931284
2898	0.012831
2910	0.00951979
2922	0.0100372
2934	0.0113824
2946	0.0081746
2958	0.00579466
2970	0.00507032
2982	0.00548423
2994	0.00413904
3006	0.00351818
3018	0.00331123
3030	0.0030008
3042	0.00310428
3054	0.00237995
3066	0.00248342
3078	0.00227647
3090	0.00196604
3102	0.0030008
3114	0.00351818
3126	0.00372514
3138	0.00403556
3150	0.00382861
3162	0.00424252
3174	0.00444947
3186	0.00434599
3198	0.00382861
3210	0.00269038
3222	0.00310428
3234	0.00237995
3246	0.00165562
3258	0.00196604
3270	0.00227647
3282	0.00248342
3294	0.0030008
3306	0.00279385
3318	0.0030008
3330	0.00413904
3342	0.0047599
3354	0.00455294
3366	0.00455294
3378	0.0047599
3390	0.00444947
3402	0.00444947
3414	0.00382861
3426	0.00289733
3438	0.00269038
3450	0.00227647
3462	0.00206952
3474	0.00269038
3486	0.00289733
3498	0.00320776
3510	0.00310428
3522	0.00507032
3534	0.00413904
3546	0.00600161
3558	0.00341471
3570	0.00662246
3582	0.00434599
3594	0.00765722
3606	0.00465642
3618	0.0051738
3630	0.00951979
3642	0.00051738
3654	0.0113824
3666	0.0030008
3678	0.00382861
3690	0.0112789
3702	0.00486337
3714	0.00889894
3726	0.00424252
3738	0.00486337
3750	0.0214195
3762	0.00610508
3774	0.00579466
3786	0.00662246
3798	0.0125206
3810	0.00413904
3822	0.0121067
3834	0.00745027
3846	0.00848503
3858	0.00682942
3870	0.00465642
3882	0.00496685
3894	0.000620856
3906	0.00569118
3918	0.00651899
3930	0.00341471
3942	0.00641551
3954	0.00900241
3966	0.0109685
