Infrared Spectrum: 2-Nonanone
Formula: C 9 H 18 O
CAS: 821-55-6
Origin: Sadtler Research Labs Under US-EPA Contract
1/CM	ABSORBANCE
450	0.000244803
462	0.0112609
474	0.00285603
486	0.0103633
498	0.0159122
510	0.0172178
522	0.0248883
534	0.0176258
546	0.016565
558	0.0100369
570	0.0109345
582	0.0170546
594	0.0354148
606	0.0156674
618	0.0117505
630	0.0121585
642	0.00546727
654	0.00383525
666	0.00448805
678	0.00571207
690	0.00889451
702	0.0109345
714	0.0221955
726	0.0235827
738	0.0154226
750	0.00873131
762	0.0078337
774	0.00620168
786	0.0078337
798	0.0081601
810	0.00522246
822	0.00514086
834	0.00579367
846	0.00514086
858	0.00489606
870	0.00636488
882	0.0078337
894	0.00995532
906	0.0103633
918	0.012893
930	0.016157
942	0.0222771
954	0.0272547
966	0.0282339
978	0.0210531
990	0.0156674
1002	0.0124034
1014	0.0119953
1026	0.0118321
1038	0.0115873
1050	0.0123218
1062	0.0136274
1074	0.0158306
1086	0.0197474
1098	0.0261123
1110	0.0312532
1122	0.035986
1134	0.0466758
1146	0.0813562
1158	0.176421
1170	0.150391
1182	0.0882923
1194	0.0763785
1206	0.0759705
1218	0.077929
1230	0.0649544
1242	0.050103
1254	0.0434117
1266	0.0443093
1278	0.0395765
1290	0.0402293
1302	0.0444725
1314	0.0436565
1326	0.0478182
1338	0.0718089
1350	0.135458
1362	0.235092
1374	0.160346
1386	0.0866603
1398	0.0541831
1410	0.0579367
1422	0.0688712
1434	0.0679736
1446	0.0776842
1458	0.10298
1470	0.0947388
1482	0.0473286
1494	0.0214611
1506	0.0147698
1518	0.0138722
1530	0.0129746
1542	0.0111793
1554	0.0105265
1566	0.00938411
1578	0.0079969
1590	0.00660968
1602	0.00620168
1614	0.00595687
1626	0.00571207
1638	0.00612007
1650	0.0079969
1662	0.0106081
1674	0.017381
1686	0.0332932
1698	0.0647912
1710	0.133907
1722	0.304698
1734	0.483812
1746	0.28846
1758	0.114813
1770	0.0704217
1782	0.0506742
1794	0.0300292
1806	0.0158306
1818	0.00864971
1830	0.00530406
1842	0.00448805
1854	0.00391685
1866	0.00334564
1878	0.00318244
1890	0.00285603
1902	0.00285603
1914	0.00228483
1926	0.00212163
1938	0.00228483
1950	0.00285603
1962	0.00285603
1974	0.00204002
1986	0.00212163
1998	0.00187682
2010	0.00187682
2022	0.00228483
2034	0.00204002
2046	0.00220323
2058	0.000408005
2070	0.00261123
2082	0.00408005
2094	0.00350884
2106	0.00375365
2118	0.00342724
2130	0.00375365
2142	0.00399845
2154	0.00399845
2166	0.00350884
2178	0.00334564
2190	0.00277443
2202	0.00318244
2214	0.00261123
2226	0.00310084
2238	0.00301924
2250	0.00228483
2262	0.00269283
2274	0.00269283
2286	0.00171362
2298	0.00228483
2310	0.00122401
2322	0.00187682
2334	0.00277443
2346	0.00326404
2358	0.00285603
2370	0.00334564
2382	0.00326404
2394	0.00310084
2406	0.00252963
2418	0.00220323
2430	0.00195842
2442	0.00236643
2454	0.00179522
2466	0.00228483
2478	0.00179522
2490	0.00261123
2502	0.00261123
2514	0.00334564
2526	0.00310084
2538	0.00326404
2550	0.00293764
2562	0.00301924
2574	0.00334564
2586	0.00399845
2598	0.00448805
2610	0.00514086
2622	0.00612007
2634	0.00775209
2646	0.00750729
2658	0.0084865
2670	0.0110977
2682	0.0115057
2694	0.0101185
2706	0.00913931
2718	0.00889451
2730	0.0104449
2742	0.0138722
2754	0.0130562
2766	0.0133826
2778	0.014933
2790	0.0184418
2802	0.0246435
2814	0.0325588
2826	0.0420245
2838	0.0603847
2850	0.127216
2862	0.288378
2874	0.326241
2886	0.277851
2898	0.251168
2910	0.322814
2922	0.539627
2934	0.805973
2946	0.702748
2958	0.495971
2970	0.508619
2982	0.232481
2994	0.0955548
3006	0.0745017
3018	0.063404
3030	0.0424325
3042	0.0340276
3054	0.0288868
3066	0.0263571
3078	0.0232563
3090	0.0205635
3102	0.018197
3114	0.0155858
3126	0.0139538
3138	0.0133826
3150	0.0135458
3162	0.013301
3174	0.0123218
3186	0.0136274
3198	0.0122401
3210	0.0115873
3222	0.0120769
3234	0.0118321
3246	0.0109345
3258	0.0114241
3270	0.0110977
3282	0.00897611
3294	0.0078337
3306	0.0081601
3318	0.00938411
3330	0.00971052
3342	0.00897611
3354	0.00971052
3366	0.00979212
3378	0.00995532
3390	0.0106081
3402	0.0109345
3414	0.0102817
3426	0.0140354
3438	0.0162386
3450	0.0163202
3462	0.013709
3474	0.0084865
3486	0.00758889
3498	0.0079153
3510	0.00612007
3522	0.00693608
3534	0.00587527
3546	0.0084049
3558	0.00546727
3570	0.0131378
3582	0.0126482
3594	0.00595687
3606	0.00301924
3618	0.00489606
3630	0.00399845
3642	0.00383525
3654	0.00432485
3666	0.00310084
3678	0.00155042
3690	0.00138722
3702	0.00187682
3714	0.00179522
3726	0.00489606
3738	0.00252963
3750	0.00293764
3762	0.00138722
3774	0.000571207
3786	0.00187682
3798	0.00114241
3810	0.00342724
3822	0.00334564
3834	0.00399845
3846	0.00334564
3858	0.00179522
3870	0.00497766
3882	0.00514086
3894	0.00220323
3906	0.00538567
3918	0.00514086
3930	0.00481446
3942	0.00456966
3954	0.00677288
3966	0.00522246
