Infrared Spectrum: 5-Hexen-1-ol
Formula: C 6 H 12 O
CAS: 821-41-0
Origin: Sadtler Research Labs Under US-EPA Contract
1/CM	ABSORBANCE
450	0
462	0.0125032
474	0.0304984
486	0.0121526
498	0.0269928
510	0.0290961
522	0.0118021
534	0.0141391
546	0.0163593
558	0.0122695
570	0.0148402
582	0.0146065
594	0.013438
606	0.0250063
618	0.0366915
630	0.0600619
642	0.0510643
654	0.0285119
666	0.0213839
678	0.0141391
690	0.0147234
702	0.0120358
714	0.013438
726	0.013438
738	0.0264086
750	0.0320174
762	0.0218513
774	0.0137885
786	0.0168267
798	0.0227861
810	0.0297973
822	0.0365747
834	0.0393791
846	0.0508306
858	0.0613473
870	0.0685921
882	0.0788751
894	0.144312
906	0.316786
918	0.428496
930	0.275186
942	0.172357
954	0.140222
966	0.146416
978	0.190235
990	0.283834
1002	0.314916
1014	0.318305
1026	0.405827
1038	0.51672
1050	0.546751
1062	0.519875
1074	0.401854
1086	0.237911
1098	0.140456
1110	0.102129
1122	0.0841334
1134	0.0766549
1146	0.0764212
1158	0.074201
1170	0.0777066
1182	0.078992
1194	0.0837829
1206	0.0917288
1218	0.0969872
1230	0.102947
1242	0.109724
1254	0.104466
1266	0.0982725
1278	0.0948838
1290	0.0934816
1302	0.090794
1314	0.0834323
1326	0.0843671
1338	0.0938322
1350	0.102947
1362	0.102713
1374	0.122578
1386	0.1574
1398	0.14735
1410	0.105401
1422	0.0993242
1434	0.113346
1446	0.13882
1458	0.131692
1470	0.0975714
1482	0.0688258
1494	0.0404308
1506	0.0234873
1518	0.0178784
1530	0.0143728
1542	0.0153076
1554	0.0143728
1566	0.0100493
1578	0.0108672
1590	0.0085302
1602	0.013438
1614	0.0239547
1626	0.0522328
1638	0.135081
1650	0.141975
1662	0.0382106
1674	0.0161256
1686	0.00817964
1698	0.00572575
1710	0.00654371
1722	0.00666056
1734	0.00455723
1746	0.00432352
1758	0.00432352
1770	0.00537519
1782	0.00537519
1794	0.00525834
1806	0.0100493
1818	0.0210334
1830	0.0368084
1842	0.0273434
1854	0.0120358
1866	0.00712797
1878	0.00420667
1890	0.00502464
1902	0.00490778
1914	0.00397297
1926	0.00408982
1938	0.00444038
1950	0.00373926
1962	0.00525834
1974	0.00817964
1986	0.00782908
1998	0.00502464
2010	0.00502464
2022	0.00595945
2034	0.0060763
2046	0.00677742
2058	0.0058426
2070	0.00525834
2082	0.00514149
2094	0.00455723
2106	0.00385612
2118	0.003155
2130	0.00280445
2142	0.00257074
2154	0.00210334
2166	0.00233704
2178	0.00233704
2190	0.00233704
2202	0.00222019
2214	0.00210334
2226	0.00222019
2238	0.0026876
2250	0.0029213
2262	0.00303815
2274	0.00350556
2286	0.00397297
2298	0.00479093
2310	0.00514149
2322	0.00572575
2334	0.00455723
2346	0.0060763
2358	0.00549204
2370	0.00537519
2382	0.00514149
2394	0.00397297
2406	0.00444038
2418	0.00467408
2430	0.00444038
2442	0.00432352
2454	0.00432352
2466	0.00420667
2478	0.00397297
2490	0.00420667
2502	0.00420667
2514	0.00479093
2526	0.00525834
2538	0.00537519
2550	0.00537519
2562	0.00549204
2574	0.00572575
2586	0.00595945
2598	0.00631001
2610	0.00759538
2622	0.00888075
2634	0.0103998
2646	0.0119189
2658	0.0141391
2670	0.0158919
2682	0.0190469
2694	0.0206828
2706	0.0218513
2718	0.0244221
2730	0.0278108
2742	0.03155
2754	0.0352893
2766	0.0401971
2778	0.0451049
2790	0.0501295
2802	0.0564395
2814	0.0668393
2826	0.0906772
2838	0.155997
2850	0.279159
2862	0.430132
2874	0.546634
2886	0.559955
2898	0.537285
2910	0.650749
2922	0.8931
2934	1.1323
2946	1.08871
2958	0.736401
2970	0.436559
2982	0.294584
2994	0.228913
3006	0.184626
3018	0.128771
3030	0.0727988
3042	0.0557384
3054	0.0613473
3066	0.0944164
3078	0.167449
3090	0.21045
3102	0.108322
3114	0.034705
3126	0.0185795
3138	0.0136717
3150	0.0106335
3162	0.00888075
3174	0.00794594
3186	0.0058426
3198	0.00490778
3210	0.00432352
3222	0.00420667
3234	0.00350556
3246	0.00338871
3258	0.003155
3270	0.003155
3282	0.00350556
3294	0.00303815
3306	0.00210334
3318	0.00222019
3330	0.00245389
3342	0.00327186
3354	0.0029213
3366	0.0029213
3378	0.003155
3390	0.00373926
3402	0.00479093
3414	0.0056089
3426	0.00724482
3438	0.00701112
3450	0.00701112
3462	0.00771223
3474	0.00806279
3486	0.00771223
3498	0.00782908
3510	0.00771223
3522	0.00771223
3534	0.00631001
3546	0.00771223
3558	0.00479093
3570	0.0106335
3582	0.00631001
3594	0.0108672
3606	0.00958186
3618	0.0155413
3630	0.0255906
3642	0.0442869
3654	0.097104
3666	0.150973
3678	0.14069
3690	0.0645023
3702	0.0244221
3714	0.0143728
3726	0.010283
3738	0.00841334
3750	0.00759538
3762	0.00373926
3774	0.00432352
3786	0.003155
3798	0.00233704
3810	0.00233704
3822	0.00490778
3834	0.00444038
3846	0.00479093
3858	0.00432352
3870	0.00338871
3882	0.00467408
3894	0.00233704
3906	0.00222019
3918	0.00467408
3930	0.00222019
3942	0.00198648
3954	0.0026876
3966	0.00455723
