Infrared Spectrum: 1,9-Dichlorononane
Formula: C 9 H 18 Cl 2
CAS: 821-99-8
Origin: Sadtler Research Labs Under US-EPA Contract
1/CM	ABSORBANCE
450	0
462	0.00573863
474	0.00976933
486	0.00758319
498	0.00970101
510	0.00771982
522	0.0105891
534	0.00929111
546	0.0137317
558	0.00847131
570	0.0108624
582	0.00997428
594	0.00860794
606	0.0101109
618	0.0140733
630	0.0176258
642	0.0292397
654	0.0620318
666	0.087924
678	0.0359347
690	0.0243892
702	0.0284882
714	0.050008
726	0.0802725
738	0.0985814
750	0.08362
762	0.0647645
774	0.0430397
786	0.0305377
798	0.0258921
810	0.0249357
822	0.0224763
834	0.0206317
846	0.0190604
858	0.0189238
870	0.0189238
882	0.0182406
894	0.0194703
906	0.0189921
918	0.0194703
930	0.0186505
942	0.0169426
954	0.0161228
966	0.0159179
978	0.0175575
990	0.0177624
1002	0.0172159
1014	0.015303
1026	0.0161911
1038	0.016806
1050	0.0176258
1062	0.0156446
1074	0.0134584
1086	0.0115456
1098	0.0110674
1110	0.00894953
1122	0.00894953
1134	0.00860794
1146	0.00894953
1158	0.00983765
1170	0.0105891
1182	0.0111357
1194	0.0114773
1206	0.010999
1218	0.0122971
1230	0.0172159
1242	0.0247308
1254	0.0378476
1266	0.0498031
1278	0.0710497
1290	0.0949606
1302	0.0975567
1314	0.086421
1326	0.0619635
1338	0.0383942
1350	0.0399654
1362	0.0357298
1374	0.0257555
1386	0.015303
1398	0.012502
1410	0.0132535
1422	0.018104
1434	0.0371644
1446	0.0743289
1458	0.102134
1470	0.0687952
1482	0.026507
1494	0.0116822
1506	0.0100426
1518	0.00908616
1530	0.00806141
1542	0.00785646
1554	0.00696833
1566	0.00676338
1578	0.00655843
1590	0.00553368
1602	0.00491882
1614	0.0060119
1626	0.00608021
1638	0.00608021
1650	0.00614853
1662	0.00580694
1674	0.00614853
1686	0.00587526
1698	0.00628516
1710	0.00628516
1722	0.00608021
1734	0.00635348
1746	0.00621685
1758	0.00594358
1770	0.0060119
1782	0.00587526
1794	0.00573863
1806	0.00580694
1818	0.00567031
1830	0.00587526
1842	0.00614853
1854	0.00587526
1866	0.00567031
1878	0.00580694
1890	0.00560199
1902	0.00553368
1914	0.00567031
1926	0.00546536
1938	0.00560199
1950	0.00553368
1962	0.00567031
1974	0.00567031
1986	0.00532873
1998	0.00567031
2010	0.00567031
2022	0.00608021
2034	0.00635348
2046	0.00628516
2058	0.00621685
2070	0.0060119
2082	0.00573863
2094	0.00580694
2106	0.00580694
2118	0.00594358
2130	0.00567031
2142	0.00573863
2154	0.00573863
2166	0.00621685
2178	0.00614853
2190	0.00614853
2202	0.00614853
2214	0.00621685
2226	0.00608021
2238	0.00614853
2250	0.00614853
2262	0.0060119
2274	0.00614853
2286	0.0064218
2298	0.00690002
2310	0.00751487
2322	0.00649012
2334	0.00546536
2346	0.00614853
2358	0.00635348
2370	0.00567031
2382	0.00628516
2394	0.00594358
2406	0.00587526
2418	0.00553368
2430	0.00546536
2442	0.00532873
2454	0.00553368
2466	0.00553368
2478	0.00567031
2490	0.00573863
2502	0.0060119
2514	0.00635348
2526	0.00649012
2538	0.00655843
2550	0.0064218
2562	0.00628516
2574	0.00628516
2586	0.00662675
2598	0.00696833
2610	0.00758319
2622	0.00792477
2634	0.00847131
2646	0.00894953
2658	0.00929111
2670	0.0101109
2682	0.010999
2694	0.0120238
2706	0.0113406
2718	0.0109307
2730	0.0109307
2742	0.0110674
2754	0.0113406
2766	0.0116139
2778	0.0126386
2790	0.0146882
2802	0.018104
2814	0.022203
2826	0.0297179
2838	0.0462506
2850	0.102271
2862	0.250245
2874	0.250928
2886	0.150434
2898	0.139093
2910	0.214037
2922	0.359962
2934	0.632957
2946	0.617107
2958	0.345616
2970	0.240817
2982	0.114363
2994	0.121673
3006	0.100358
3018	0.0359347
3030	0.0226129
3042	0.0167377
3054	0.0132535
3066	0.0108624
3078	0.00908616
3090	0.00826636
3102	0.0076515
3114	0.00737824
3126	0.00696833
3138	0.00703665
3150	0.00662675
3162	0.00662675
3174	0.00655843
3186	0.00635348
3198	0.00573863
3210	0.00580694
3222	0.00587526
3234	0.00567031
3246	0.00539704
3258	0.00567031
3270	0.00532873
3282	0.00532873
3294	0.00560199
3306	0.00560199
3318	0.00560199
3330	0.00546536
3342	0.00567031
3354	0.00580694
3366	0.00594358
3378	0.0060119
3390	0.00608021
3402	0.00580694
3414	0.00594358
3426	0.00560199
3438	0.00553368
3450	0.00526041
3462	0.00539704
3474	0.00539704
3486	0.00560199
3498	0.00539704
3510	0.00587526
3522	0.00553368
3534	0.00553368
3546	0.00526041
3558	0.00560199
3570	0.00580694
3582	0.00649012
3594	0.00621685
3606	0.00649012
3618	0.00669507
3630	0.0064218
3642	0.00662675
3654	0.00730992
3666	0.00710497
3678	0.00710497
3690	0.0068317
3702	0.00635348
3714	0.00614853
3726	0.00655843
3738	0.00635348
3750	0.00690002
3762	0.00553368
3774	0.00621685
3786	0.00703665
3798	0.00655843
3810	0.00614853
3822	0.0068317
3834	0.00655843
3846	0.00696833
3858	0.00744655
3870	0.0068317
3882	0.00703665
3894	0.00710497
3906	0.00751487
3918	0.00655843
3930	0.00744655
3942	0.00717329
3954	0.00696833
3966	0.00676338
