Infrared Spectrum: Hexane, 1,6-diisocyanato-
Formula: C 8 H 12 N 2 O 2
CAS: 822-06-0
Origin: Sadtler Research Labs Under US-EPA Contract
1/CM	ABSORBANCE
450	0
462	0.0427883
474	0.0556159
486	0.0587555
498	0.0675464
510	0.0538218
522	0.0531042
534	0.0502337
546	0.0524763
558	0.0495161
570	0.0513101
582	0.0511307
594	0.0601907
606	0.0666493
618	0.0756196
630	0.062523
642	0.0697889
654	0.0696095
666	0.068264
678	0.0506822
690	0.0611774
702	0.058307
714	0.0496058
726	0.0530145
738	0.0452103
750	0.0505028
762	0.0506822
774	0.0425192
786	0.0465559
798	0.0478117
810	0.0512204
822	0.0470044
834	0.0490675
846	0.0469147
858	0.047722
870	0.051938
882	0.0542703
894	0.052566
906	0.0489778
918	0.0482602
930	0.0461073
942	0.0499646
954	0.0484396
966	0.0490675
978	0.0499646
990	0.0456588
1002	0.0470941
1014	0.0520277
1026	0.0460176
1038	0.0467353
1050	0.0458382
1062	0.0485293
1074	0.0461073
1086	0.0448515
1098	0.0461073
1110	0.0444927
1122	0.044403
1134	0.0466456
1146	0.0485293
1158	0.0453
1170	0.0469147
1182	0.0437751
1194	0.0453
1206	0.0435957
1218	0.0442236
1230	0.0494264
1242	0.051938
1254	0.0536424
1266	0.0513998
1278	0.0503234
1290	0.0500543
1302	0.051938
1314	0.051938
1326	0.0540012
1338	0.0577687
1350	0.0826165
1362	0.0955337
1374	0.0731079
1386	0.0582172
1398	0.0493367
1410	0.047722
1422	0.0512204
1434	0.0581275
1446	0.0587555
1458	0.0575893
1470	0.058307
1482	0.0506822
1494	0.0448515
1506	0.0426089
1518	0.0417119
1530	0.0414428
1542	0.0453
1554	0.0441339
1566	0.0420707
1578	0.0437751
1590	0.0453897
1602	0.0463765
1614	0.0441339
1626	0.0380341
1638	0.0439545
1650	0.0480808
1662	0.041981
1674	0.044403
1686	0.0426089
1698	0.0412634
1710	0.0417119
1722	0.0441339
1734	0.0433265
1746	0.0422501
1758	0.0434163
1770	0.0431471
1782	0.0427883
1794	0.0426986
1806	0.0430574
1818	0.042878
1830	0.0430574
1842	0.0424295
1854	0.0429677
1866	0.0432368
1878	0.0422501
1890	0.0424295
1902	0.0418913
1914	0.0418016
1926	0.041981
1938	0.0418913
1950	0.0416222
1962	0.0418913
1974	0.0416222
1986	0.0416222
1998	0.0416222
2010	0.041981
2022	0.0418913
2034	0.0421604
2046	0.0426089
2058	0.0427883
2070	0.0438648
2082	0.0449412
2094	0.046197
2106	0.0472735
2118	0.0475426
2130	0.0484396
2142	0.0498749
2154	0.0530145
2166	0.0574996
2178	0.0644068
2190	0.075799
2202	0.0932014
2214	0.120471
2226	0.164246
2238	0.242647
2250	0.389221
2262	0.687035
2274	0.89703
2286	0.750904
2298	0.469147
2310	0.30203
2322	0.227756
2334	0.186313
2346	0.168642
2358	0.184071
2370	0.146126
2382	0.0928426
2394	0.0551673
2406	0.0527454
2418	0.0513998
2430	0.0488881
2442	0.0467353
2454	0.0442236
2466	0.0420707
2478	0.0403664
2490	0.0396487
2502	0.038662
2514	0.0382135
2526	0.0381238
2538	0.0376753
2550	0.037137
2562	0.0372267
2574	0.0374959
2586	0.0368679
2598	0.0373164
2610	0.0368679
2622	0.0365988
2634	0.0369576
2646	0.0364194
2658	0.0366885
2670	0.0367782
2682	0.0367782
2694	0.0370473
2706	0.0363297
2718	0.0365988
2730	0.0364194
2742	0.0356121
2754	0.0359709
2766	0.0364194
2778	0.0368679
2790	0.0363297
2802	0.037137
2814	0.0375856
2826	0.0383929
2838	0.0392899
2850	0.0412634
2862	0.0542703
2874	0.0654832
2886	0.0635994
2898	0.0637788
2910	0.0611774
2922	0.070058
2934	0.0927529
2946	0.134285
2958	0.136169
2970	0.0836929
2982	0.0518483
2994	0.0427883
3006	0.0400075
3018	0.0385723
3030	0.0378547
3042	0.0381238
3054	0.0374959
3066	0.0379444
3078	0.037137
3090	0.0374062
3102	0.0378547
3114	0.037765
3126	0.0385723
3138	0.0384826
3150	0.0388414
3162	0.0374062
3174	0.0383032
3186	0.0376753
3198	0.0374062
3210	0.0374959
3222	0.0380341
3234	0.0372267
3246	0.037137
3258	0.0370473
3270	0.0376753
3282	0.037137
3294	0.0374062
3306	0.0374062
3318	0.0363297
3330	0.0361503
3342	0.0367782
3354	0.0364194
3366	0.0382135
3378	0.0383929
3390	0.0374062
3402	0.0383032
3414	0.0380341
3426	0.0392899
3438	0.0385723
3450	0.0381238
3462	0.037765
3474	0.0385723
3486	0.038662
3498	0.037765
3510	0.0382135
3522	0.0391105
3534	0.0389311
3546	0.0374959
3558	0.037765
3570	0.0381238
3582	0.0381238
3594	0.0400075
3606	0.0383032
3618	0.0388414
3630	0.0406355
3642	0.0392899
3654	0.041981
3666	0.0403664
3678	0.042878
3690	0.0454794
3702	0.0442236
3714	0.0430574
3726	0.0399178
3738	0.0392899
3750	0.0441339
3762	0.0376753
3774	0.0387517
3786	0.0373164
3798	0.0383929
3810	0.037765
3822	0.0412634
3834	0.0383929
3846	0.0380341
3858	0.0400972
3870	0.0400075
3882	0.0376753
3894	0.0357915
3906	0.0374959
3918	0.0391105
3930	0.0398281
3942	0.0373164
3954	0.0388414
3966	0.0391105
