Infrared Spectrum: Acetic acid, octadecyl ester
Formula: C 20 H 40 O 2
CAS: 822-23-1
Origin: Sadtler Research Labs Under US-EPA Contract
1/CM	ABSORBANCE
450	0
462	0.0107614
474	0.0108994
486	0.00993362
498	0.0128309
510	0.0111753
522	0.00814005
534	0.00772615
546	0.00620851
558	0.00910582
570	0.00689835
582	0.00841599
594	0.0114513
606	0.0195913
618	0.0151764
630	0.0201432
642	0.0171079
654	0.00993362
666	0.00758818
678	0.00717428
690	0.00882989
702	0.012693
714	0.0246961
726	0.0255239
738	0.0184876
750	0.0161421
762	0.0135208
774	0.0115892
786	0.0115892
798	0.0114513
810	0.0139347
822	0.0131069
834	0.0139347
846	0.016556
858	0.0151764
870	0.0150384
882	0.0149004
894	0.0143486
906	0.0142106
918	0.0147625
930	0.0164181
942	0.0189015
954	0.020971
966	0.0234544
978	0.0248341
990	0.0259378
1002	0.0398725
1014	0.0682937
1026	0.104579
1038	0.130931
1050	0.12417
1062	0.0998881
1074	0.0820904
1086	0.0637408
1098	0.0429077
1110	0.0282832
1122	0.021109
1134	0.0160042
1146	0.0146245
1158	0.0160042
1170	0.0202811
1182	0.029387
1194	0.0535312
1206	0.121411
1218	0.306011
1230	0.678384
1242	0.551178
1254	0.243926
1266	0.14252
1278	0.0871951
1290	0.0616712
1302	0.0510478
1314	0.0407003
1326	0.0315944
1338	0.0360094
1350	0.058636
1362	0.116858
1374	0.132724
1386	0.0871951
1398	0.0589119
1410	0.0306287
1422	0.0281453
1434	0.0402864
1446	0.0729845
1458	0.116444
1470	0.104993
1482	0.0438735
1494	0.0230405
1506	0.0169699
1518	0.0132448
1530	0.0104855
1542	0.00910582
1554	0.00745022
1566	0.00662242
1578	0.00620851
1590	0.00607055
1602	0.00579461
1614	0.00579461
1626	0.00648445
1638	0.00676038
1650	0.00814005
1662	0.00855395
1674	0.0102096
1686	0.012417
1698	0.0180737
1710	0.0286971
1722	0.0521515
1734	0.10113
1746	0.217436
1758	0.403278
1770	0.287523
1782	0.120859
1794	0.0514617
1806	0.0253859
1818	0.0143486
1830	0.0103475
1842	0.00814005
1854	0.00703632
1866	0.00676038
1878	0.00634648
1890	0.00593258
1902	0.00551868
1914	0.00551868
1926	0.00538071
1938	0.00538071
1950	0.00496681
1962	0.00538071
1974	0.00565665
1986	0.00593258
1998	0.00689835
2010	0.00731225
2022	0.00786412
2034	0.00841599
2046	0.00855395
2058	0.00827802
2070	0.00855395
2082	0.00827802
2094	0.00827802
2106	0.00814005
2118	0.00814005
2130	0.00800209
2142	0.00772615
2154	0.00758818
2166	0.00745022
2178	0.00758818
2190	0.00745022
2202	0.00745022
2214	0.00731225
2226	0.00758818
2238	0.00772615
2250	0.00772615
2262	0.00786412
2274	0.00827802
2286	0.00731225
2298	0.00579461
2310	0.00496681
2322	0.00731225
2334	0.00827802
2346	0.00662242
2358	0.00758818
2370	0.00634648
2382	0.00620851
2394	0.00800209
2406	0.00800209
2418	0.00772615
2430	0.00814005
2442	0.00827802
2454	0.00882989
2466	0.00896785
2478	0.00869192
2490	0.00882989
2502	0.00896785
2514	0.00938176
2526	0.00979566
2538	0.0102096
2550	0.0104855
2562	0.0103475
2574	0.0107614
2586	0.0118652
2598	0.012417
2610	0.0129689
2622	0.0136587
2634	0.0146245
2646	0.0154523
2658	0.0164181
2670	0.0182116
2682	0.0201432
2694	0.0195913
2706	0.0184876
2718	0.0180737
2730	0.0190394
2742	0.0205571
2754	0.021109
2766	0.0226266
2778	0.024972
2790	0.0302148
2802	0.0373891
2814	0.0467708
2826	0.0640167
2838	0.0967149
2850	0.213435
2862	0.545108
2874	0.369752
2886	0.248341
2898	0.271243
2910	0.439701
2922	0.790965
2934	1.37967
2946	0.826146
2958	0.41735
2970	0.336088
2982	0.172459
2994	0.0935416
3006	0.058636
3018	0.0435976
3030	0.0360094
3042	0.0296629
3054	0.025248
3066	0.0224886
3078	0.0198672
3090	0.0172459
3102	0.0157282
3114	0.0139347
3126	0.0128309
3138	0.0118652
3150	0.0113133
3162	0.0104855
3174	0.0100716
3186	0.00951972
3198	0.00882989
3210	0.00827802
3222	0.00814005
3234	0.00786412
3246	0.00731225
3258	0.00758818
3270	0.00731225
3282	0.00745022
3294	0.00703632
3306	0.00676038
3318	0.00676038
3330	0.00676038
3342	0.00717428
3354	0.00676038
3366	0.00676038
3378	0.00676038
3390	0.00731225
3402	0.00703632
3414	0.00689835
3426	0.00703632
3438	0.00662242
3450	0.00689835
3462	0.00662242
3474	0.00731225
3486	0.00758818
3498	0.00827802
3510	0.00772615
3522	0.00565665
3534	0.00565665
3546	0.00551868
3558	0.00565665
3570	0.00551868
3582	0.00551868
3594	0.00607055
3606	0.00648445
3618	0.00676038
3630	0.00717428
3642	0.00717428
3654	0.00745022
3666	0.00676038
3678	0.00648445
3690	0.00676038
3702	0.00676038
3714	0.00593258
3726	0.00745022
3738	0.00745022
3750	0.00593258
3762	0.00620851
3774	0.00662242
3786	0.00634648
3798	0.00634648
3810	0.00565665
3822	0.00620851
3834	0.00648445
3846	0.00607055
3858	0.00648445
3870	0.00648445
3882	0.00662242
3894	0.00676038
3906	0.00662242
3918	0.00662242
3930	0.00634648
3942	0.00717428
3954	0.00676038
3966	0.00634648
