Infrared Spectrum: Dioctyl disulphide
Formula: C 16 H 34 S 2
CAS: 822-27-5
Origin: Sadtler Research Labs Under US-EPA Contract
1/CM	ABSORBANCE
450	0.0320895
462	0.0218944
474	0.0108636
486	0.0170476
498	0.0157105
510	0.0128692
522	0.00752098
534	0.00701959
546	0.0183846
558	0.0172147
570	0.0106965
582	0.0110308
594	0.00785525
606	0.0127021
618	0.00885805
630	0.0127021
642	0.00818952
654	0.0101951
666	0.00935945
678	0.0133706
690	0.0153762
702	0.0232315
714	0.0305853
726	0.0357665
738	0.0295825
750	0.0386077
762	0.0220616
774	0.0197217
786	0.0137049
798	0.0103622
810	0.0132035
822	0.00802238
834	0.0120336
846	0.00618392
858	0.00802238
870	0.00768812
882	0.00752098
894	0.00618392
906	0.0116993
918	0.00818952
930	0.0108636
942	0.00785525
954	0.00668532
966	0.00434546
978	0.00802238
990	0.00718672
1002	0.00835665
1014	0.010028
1026	0.0118664
1038	0.0123678
1050	0.00902518
1062	0.00668532
1074	0.010028
1086	0.00969371
1098	0.0101951
1110	0.0110308
1122	0.00818952
1134	0.00718672
1146	0.00768812
1158	0.0123678
1170	0.0133706
1182	0.0145406
1194	0.0167133
1206	0.0244014
1218	0.0359336
1230	0.050307
1242	0.0498056
1254	0.0536497
1266	0.0676889
1278	0.0651819
1290	0.0681903
1302	0.0621735
1314	0.0442902
1326	0.0372707
1338	0.0486357
1350	0.0648476
1362	0.0558224
1374	0.046463
1386	0.04897
1398	0.0344294
1410	0.0384406
1422	0.0556553
1434	0.0725357
1446	0.110141
1458	0.151757
1470	0.125851
1482	0.0584966
1494	0.0290811
1506	0.0192203
1518	0.0133706
1530	0.0108636
1542	0.00902518
1554	0.010028
1566	0.010028
1578	0.00835665
1590	0.00952658
1602	0.00768812
1614	0.00651819
1626	0.00952658
1638	0.00601679
1650	0.00518112
1662	0.00869092
1674	0.00417833
1686	0.00701959
1698	0.00384406
1710	0.00668532
1722	0.00467972
1734	0.00618392
1746	0.00685245
1758	0.00618392
1770	0.00584965
1782	0.00584965
1794	0.00467972
1806	0.00401119
1818	0.00534826
1830	0.00350979
1842	0.00401119
1854	0.00467972
1866	0.00417833
1878	0.00367693
1890	0.00350979
1902	0.00367693
1914	0.00451259
1926	0.00317553
1938	0.00367693
1950	0.00401119
1962	0.00334266
1974	0.00334266
1986	0.00350979
1998	0.00367693
2010	0.00401119
2022	0.00501399
2034	0.00467972
2046	0.00484686
2058	0.00367693
2070	0.00350979
2082	0.00317553
2094	0.00300839
2106	0.0020056
2118	0.002507
2130	0.00217273
2142	0.002507
2154	0.00217273
2166	0.00217273
2178	0.00217273
2190	0.00217273
2202	0.0015042
2214	0.0020056
2226	0.00183846
2238	0.0020056
2250	0.00183846
2262	0.0020056
2274	0.0020056
2286	0.00317553
2298	0.00417833
2310	0.00518112
2322	0.00501399
2334	0.00534826
2346	0.00451259
2358	0.00584965
2370	0.00367693
2382	0.00451259
2394	0.00350979
2406	0.00317553
2418	0.00317553
2430	0.00350979
2442	0.00317553
2454	0.00284126
2466	0.00334266
2478	0.00317553
2490	0.00300839
2502	0.00350979
2514	0.00384406
2526	0.00434546
2538	0.00518112
2550	0.00584965
2562	0.00601679
2574	0.00651819
2586	0.00785525
2598	0.00869092
2610	0.010028
2622	0.0106965
2634	0.0122007
2646	0.0132035
2658	0.0152091
2670	0.0170476
2682	0.0183846
2694	0.0172147
2706	0.0155434
2718	0.0165462
2730	0.0177161
2742	0.0208916
2754	0.0210588
2766	0.0228972
2778	0.0260727
2790	0.033928
2802	0.0442902
2814	0.0608364
2826	0.0823966
2838	0.120837
2850	0.258053
2862	0.579283
2874	0.505076
2886	0.407303
2898	0.388083
2910	0.608698
2922	1.02653
2934	1.67133
2946	1.13149
2958	0.727196
2970	0.706805
2982	0.296661
2994	0.138386
3006	0.0847364
3018	0.0586637
3030	0.0446245
3042	0.0349308
3054	0.0277441
3066	0.0232315
3078	0.020056
3090	0.0185518
3102	0.0162119
3114	0.0145406
3126	0.0135378
3138	0.0128692
3150	0.0118664
3162	0.0111979
3174	0.0105294
3186	0.0103622
3198	0.00919231
3210	0.00785525
3222	0.00584965
3234	0.00668532
3246	0.00551539
3258	0.00551539
3270	0.00467972
3282	0.00467972
3294	0.00417833
3306	0.00451259
3318	0.00451259
3330	0.00417833
3342	0.00434546
3354	0.00451259
3366	0.00434546
3378	0.00467972
3390	0.00417833
3402	0.00484686
3414	0.00434546
3426	0.00467972
3438	0.00384406
3450	0.00334266
3462	0.00484686
3474	0.00367693
3486	0.00434546
3498	0.00401119
3510	0.00384406
3522	0.00417833
3534	0.00334266
3546	0.00384406
3558	0.00451259
3570	0.00350979
3582	0.00384406
3594	0.00467972
3606	0.00434546
3618	0.002507
3630	0.00434546
3642	0.00484686
3654	0.00735385
3666	0.00501399
3678	0.002507
3690	0.00668532
3702	0.00417833
3714	0.00467972
3726	0.00384406
3738	0.002507
3750	0.00518112
3762	0.00384406
3774	0.00367693
3786	0.00601679
3798	0.00551539
3810	0.00417833
3822	0.00434546
3834	0.00384406
3846	0.00635105
3858	0.0015042
3870	0.00685245
3882	0.00668532
3894	0.00284126
3906	0.00384406
3918	0.00618392
3930	0.00284126
3942	0.00618392
3954	0.00484686
3966	0.00534826
