Infrared Spectrum: 2-Cyclohexen-1-ol
Formula: C 6 H 10 O
CAS: 822-67-3
Origin: Sadtler Research Labs Under US-EPA Contract
1/CM	ABSORBANCE
450	0.0250067
462	0.0306954
474	0.0335397
486	0.0347249
498	0.0101923
510	0.00094812
522	0.0164736
534	0.019792
546	0.0372137
558	0.0567687
570	0.039347
582	0.0205031
594	0.011733
606	0.00533317
618	0.00699239
630	0.0105478
642	0.00936269
654	0.0289177
666	0.0469319
678	0.0496578
690	0.0362656
702	0.0491837
714	0.1197
726	0.250422
738	0.12527
750	0.0509614
762	0.0113774
774	0.00936269
786	0.0208586
798	0.0461023
810	0.0475245
822	0.0350804
834	0.0369767
846	0.0523836
858	0.0604427
870	0.0609167
882	0.0776273
894	0.109508
906	0.0999081
918	0.12693
930	0.109508
942	0.146485
954	0.264525
966	0.325087
978	0.234067
990	0.13404
1002	0.109389
1014	0.0957601
1026	0.143522
1038	0.340375
1050	0.624219
1062	0.677906
1074	0.409825
1086	0.158929
1098	0.0719386
1110	0.0539243
1122	0.059613
1134	0.0744274
1146	0.0930343
1158	0.117567
1170	0.124796
1182	0.116856
1194	0.125626
1206	0.167225
1218	0.174691
1230	0.148736
1242	0.125626
1254	0.112471
1266	0.0910195
1278	0.0689757
1290	0.0615093
1302	0.0705164
1314	0.098486
1326	0.131789
1338	0.148736
1350	0.152766
1362	0.162484
1374	0.149566
1386	0.151699
1398	0.151107
1410	0.122426
1422	0.0903084
1434	0.1261
1446	0.160114
1458	0.141744
1470	0.0776273
1482	0.0325916
1494	0.0135107
1506	0.0107849
1518	0.011496
1530	0.011496
1542	0.00924417
1554	0.00687387
1566	0.0047406
1578	0.00616278
1590	0.00450357
1602	0.00592575
1614	0.00829605
1626	0.0136292
1638	0.0321176
1650	0.0456283
1662	0.0382803
1674	0.0191994
1686	0.0269029
1698	0.0394655
1710	0.039347
1722	0.0302213
1734	0.0164736
1746	0.0136292
1758	0.00877011
1770	0.00877011
1782	0.00829605
1794	0.00770347
1806	0.00734793
1818	0.00568872
1830	0.00438505
1842	0.00450357
1854	0.00687387
1866	0.0071109
1878	0.00568872
1890	0.0047406
1902	0.00545169
1914	0.00616278
1926	0.00734793
1938	0.0071109
1950	0.0062813
1962	0.00533317
1974	0.00426654
1986	0.00497763
1998	0.0055702
2010	0.00675536
2022	0.0062813
2034	0.00438505
2046	0.00201476
2058	0.00142218
2070	0.000355545
2082	0.00130367
2094	0.00533317
2106	0.00734793
2118	0.00675536
2130	0.00651833
2142	0.00604427
2154	0.00580724
2166	0.0055702
2178	0.00545169
2190	0.00509614
2202	0.00580724
2214	0.00580724
2226	0.00521466
2238	0.00533317
2250	0.00450357
2262	0.00426654
2274	0.00402951
2286	0.00391099
2298	0.00284436
2310	0.00094812
2322	0.00118515
2334	0.00343693
2346	0.00651833
2358	0
2370	0.0137477
2382	0.0107849
2394	0.00663684
2406	0.00616278
2418	0.0055702
2430	0.00485911
2442	0.00497763
2454	0.00391099
2466	0.00367396
2478	0.00402951
2490	0.00402951
2502	0.00450357
2514	0.00438505
2526	0.00402951
2538	0.00379248
2550	0.00402951
2562	0.00331842
2574	0.00379248
2586	0.00509614
2598	0.00770347
2610	0.0113774
2622	0.0125626
2634	0.0135107
2646	0.0170662
2658	0.0228734
2670	0.0194365
2682	0.0142218
2694	0.0135107
2706	0.0129181
2718	0.0132737
2730	0.0125626
2742	0.0120885
2754	0.0136292
2766	0.0175402
2778	0.0219253
2790	0.0255992
2802	0.0297473
2814	0.035436
2826	0.0616278
2838	0.181446
2850	0.320228
2862	0.411129
2874	0.419662
2886	0.395129
2898	0.398566
2910	0.470505
2922	0.740245
2934	1.00998
2946	1.13739
2958	0.858878
2970	0.368937
2982	0.1101
2994	0.0615093
3006	0.0613908
3018	0.160943
3030	0.315724
3042	0.319398
3054	0.140914
3066	0.0527392
3078	0.0321176
3090	0.01197
3102	0.00592575
3114	0.00426654
3126	0.00521466
3138	0.00497763
3150	0.00485911
3162	0.00545169
3174	0.00509614
3186	0.00722942
3198	0.00770347
3210	0.00853308
3222	0.00794051
3234	0.00651833
3246	0.00213327
3258	0.00094812
3270	0.000829605
3282	0.00260733
3294	0.00391099
3306	0.00545169
3318	0.00604427
3330	0.00426654
3342	0.0023703
3354	0.00248882
3366	0.00118515
3378	0.00296287
3390	0.00450357
3402	0.00592575
3414	0.00639981
3426	0.00355545
3438	0.00296287
3450	0.00497763
3462	0.00450357
3474	0.00616278
3486	0.00497763
3498	0.00545169
3510	0.00497763
3522	0.00521466
3534	0.00426654
3546	0.0047406
3558	0.00450357
3570	0.00272585
3582	0.00616278
3594	0.00877011
3606	0.00971823
3618	0.0244141
3630	0.0675536
3642	0.115908
3654	0.116145
3666	0.0700424
3678	0.0206216
3690	0.00853308
3702	0.00663684
3714	0.00663684
3726	0.00450357
3738	0.00805902
3750	0.00616278
3762	0.00877011
3774	0.00841457
3786	0.00580724
3798	0.00959971
3810	0.00746645
3822	0.00545169
3834	0.00533317
3846	0.00995526
3858	0.00758496
3870	0.00900714
3882	0.00900714
3894	0.00651833
3906	0.00995526
3918	0.0127996
3930	0.0145773
3942	0.00722942
3954	0.00699239
3966	0.00616278
