Infrared Spectrum: Bicyclo(2.2.1)heptane-2-carboxylic acid
Formula: C 8 H 12 O 2
CAS: 824-62-4
Origin: Sadtler Research Labs Under US-EPA Contract
1/CM	ABSORBANCE
450	0.00413213
462	0.00751296
474	0.0104242
486	0.010706
498	0.0118329
510	0.0186885
522	0.0313666
534	0.0542811
546	0.0903433
558	0.143873
570	0.174864
582	0.127908
594	0.103303
606	0.101049
618	0.114854
630	0.104994
642	0.0531542
654	0.0326814
666	0.0445143
678	0.0489282
690	0.0848025
702	0.1157
714	0.0647054
726	0.0221632
738	0.0133355
750	0.0151198
762	0.0239476
774	0.0285492
786	0.0165285
798	0.0154016
810	0.0164346
822	0.0138051
834	0.0168102
846	0.0106121
858	0.00403822
870	0.00694949
882	0.0104242
894	0.0062921
906	0.00666775
918	0.0144624
930	0.0232902
942	0.0302397
954	0.0315544
966	0.0270467
978	0.0285492
990	0.0340901
1002	0.0537177
1014	0.0589767
1026	0.0406639
1038	0.041603
1050	0.0732514
1062	0.13852
1074	0.143028
1086	0.115042
1098	0.188857
1110	0.428802
1122	0.58742
1134	0.601037
1146	0.443922
1158	0.227173
1170	0.159556
1182	0.129129
1194	0.0955085
1206	0.0765383
1218	0.051182
1230	0.0477073
1242	0.0593524
1254	0.0585072
1266	0.0485525
1278	0.0374709
1290	0.0371892
1302	0.0590706
1314	0.0790739
1326	0.0554081
1338	0.04057
1350	0.0591646
1362	0.10011
1374	0.129317
1386	0.0922216
1398	0.0484586
1410	0.0345596
1422	0.0300518
1434	0.0251684
1446	0.0433873
1458	0.0753174
1470	0.057662
1482	0.0293945
1494	0.0145564
1506	0.00817034
1518	0.00619819
1530	0.00582254
1542	0.00488342
1554	0.00516516
1566	0.00525907
1578	0.00488342
1590	0.0054469
1602	0.00535298
1614	0.0046956
1626	0.00441386
1638	0.00525907
1650	0.0054469
1662	0.00741905
1674	0.00976685
1686	0.0123025
1698	0.0200972
1710	0.0423543
1722	0.0817034
1734	0.119926
1746	0.220411
1758	0.592866
1770	0.93912
1782	0.533138
1794	0.1666
1806	0.0887468
1818	0.0525907
1830	0.0225389
1842	0.0108938
1854	0.00967294
1866	0.00788861
1878	0.00591646
1890	0.00507125
1902	0.0039443
1914	0.00385039
1926	0.00441386
1938	0.00403822
1950	0.00375648
1962	0.00272345
1974	0.00140868
1986	0.00122086
1998	0.00131477
2010	0.00140868
2022	0.00140868
2034	0.00103303
2046	0
2058	0.00093912
2070	0.00272345
2082	0.00272345
2094	0.00300518
2106	0.00347474
2118	0.00403822
2130	0.00422604
2142	0.0030991
2154	0.00300518
2166	0.00366257
2178	0.00375648
2190	0.00441386
2202	0.00431995
2214	0.00366257
2226	0.00441386
2238	0.00507125
2250	0.00572863
2262	0.00554081
2274	0.00554081
2286	0.00760687
2298	0.0118329
2310	0.0154955
2322	0.012772
2334	0.0105181
2346	0.0128659
2358	0.0126781
2370	0.0111755
2382	0.0120207
2394	0.00601037
2406	0.00638602
2418	0.00591646
2430	0.00610428
2442	0.00582254
2454	0.00535298
2466	0.00507125
2478	0.00582254
2490	0.0054469
2502	0.00601037
2514	0.0054469
2526	0.00516516
2538	0.0054469
2550	0.00535298
2562	0.00591646
2574	0.0062921
2586	0.00723122
2598	0.00732514
2610	0.00751296
2622	0.00685558
2634	0.00657384
2646	0.00638602
2658	0.00619819
2670	0.00601037
2682	0.00732514
2694	0.00770078
2706	0.00835817
2718	0.00882773
2730	0.0086399
2742	0.00967294
2754	0.00976685
2766	0.0106121
2778	0.012772
2790	0.0137112
2802	0.0132416
2814	0.0119268
2826	0.0141807
2838	0.0186885
2850	0.0259197
2862	0.0460169
2874	0.157584
2886	0.267274
2898	0.190829
2910	0.116169
2922	0.147066
2934	0.20454
2946	0.346911
2958	0.717112
2970	0.90672
2982	0.533514
2994	0.146784
3006	0.0399126
3018	0.0216937
3030	0.0164346
3042	0.0153077
3054	0.014932
3066	0.0133355
3078	0.0110816
3090	0.00976685
3102	0.00807643
3114	0.0077947
3126	0.0077947
3138	0.00760687
3150	0.00760687
3162	0.00807643
3174	0.00657384
3186	0.00647993
3198	0.00676166
3210	0.00563472
3222	0.0054469
3234	0.00516516
3246	0.00497734
3258	0.00450778
3270	0.00450778
3282	0.00413213
3294	0.00507125
3306	0.00422604
3318	0.00507125
3330	0.00525907
3342	0.00516516
3354	0.00450778
3366	0.00582254
3378	0.00422604
3390	0.00572863
3402	0.00497734
3414	0.00507125
3426	0.00497734
3438	0.00450778
3450	0.00366257
3462	0.00450778
3474	0.00525907
3486	0.0046956
3498	0.00666775
3510	0.00892164
3522	0.00995467
3534	0.0110816
3546	0.0107999
3558	0.0548446
3570	0.28784
3582	0.264081
3594	0.0321179
3606	0.00817034
3618	0.00854599
3630	0.00882773
3642	0.00666775
3654	0.00441386
3666	0.00788861
3678	0.00431995
3690	0.00619819
3702	0.00535298
3714	0.00591646
3726	0.00873382
3738	0.00647993
3750	0.00666775
3762	0.00676166
3774	0.00488342
3786	0.0039443
3798	0.00525907
3810	0.00516516
3822	0.00328692
3834	0.00338083
3846	0.00450778
3858	0.00253562
3870	0.00554081
3882	0.00638602
3894	0.00554081
3906	0.00732514
3918	0.0054469
3930	0.00450778
3942	0.00460169
3954	0.0054469
3966	0.00694949
