Infrared Spectrum: p-Fluorobenzamide
Formula: C 7 H 6 F N O
CAS: 824-75-9
Origin: Sadtler Research Labs Under US-EPA Contract
1/CM	ABSORBANCE
450	0.0210163
462	0.0096258
474	0.0351342
486	0.0430755
498	0.02238
510	0.0170858
522	0.0137168
534	0.00834236
546	0.00048129
558	0.0138772
570	0.0987447
582	0.10837
594	0.010428
606	0.00080215
618	0.0032086
630	0.00737978
642	0.00810172
654	0.0117114
666	0.0197329
678	0.0339309
690	0.0454017
702	0.0249469
714	0.0105082
726	0.0101071
738	0.0217383
750	0.0653752
762	0.113665
774	0.069386
786	0.0301608
798	0.0256688
810	0.0428348
822	0.0560703
834	0.123852
846	0.176794
858	0.104199
870	0.043637
882	0.0164441
894	0.0110697
906	0.00577548
918	0.00248667
930	0.00192516
942	0.00216581
954	0.00224602
966	0.00288774
978	0.00200538
990	0.00240645
1002	0.00609634
1014	0.020535
1026	0.010428
1038	0.00497333
1050	0.0096258
1062	0.0345727
1074	0.0458028
1086	0.0189307
1098	0.00930494
1110	0.00954559
1122	0.00970602
1134	0.00569527
1146	0.0214976
1158	0.14559
1170	0.0633699
1182	0.00441183
1194	0.00200538
1206	0.010829
1218	0.0408294
1230	0.210324
1242	0.454819
1254	0.150082
1266	0.0462038
1278	0.0512574
1290	0.0679421
1302	0.0571131
1314	0.0616051
1326	0.139093
1338	0.486344
1350	0.635383
1362	0.188746
1374	0.0506157
1386	0.034332
1398	0.0482092
1410	0.0487707
1422	0.0141981
1434	0.000721935
1446	0.00505355
1458	0.010428
1470	0.0144387
1482	0.0166847
1494	0.0439578
1506	0.24634
1518	0.232784
1530	0.020535
1542	0.0155617
1554	0.030963
1566	0.0642522
1578	0.193398
1590	0.368267
1602	0.409016
1614	0.279549
1626	0.0881563
1638	0.0388241
1650	0.0310432
1662	0.0344925
1674	0.056712
1686	0.0956163
1698	0.161713
1710	0.466691
1722	0.760839
1734	0.493643
1746	0.126178
1758	0.0750812
1770	0.052621
1782	0.0217383
1794	0.00657763
1806	0.00561505
1818	0.00513376
1830	0.00240645
1842	0.000882365
1854	0.00360968
1866	0.00425139
1878	0.00545462
1890	0.00489311
1902	0.00529419
1914	0.0064172
1926	0.00689849
1938	0.00537441
1950	0.00264709
1962	0.00192516
1974	0.00144387
1986	0.00192516
1998	0.00232624
2010	0.00144387
2022	0.00144387
2034	0.00328882
2046	0.00368989
2058	0.00417118
2070	0.00393053
2082	0.00288774
2094	0.00120323
2106	0.000721935
2118	0.000721935
2130	0.000882365
2142	0.00032086
2154	0.00032086
2166	0.000882365
2178	0.00128344
2190	0.00144387
2202	0.00120323
2214	0.0010428
2226	0.000721935
2238	0.00112301
2250	0.00112301
2262	0.00168452
2274	0.00176473
2286	0.00112301
2298	0.00080215
2310	0.00064172
2322	0.00184495
2334	0.00208559
2346	0.00144387
2358	0.00208559
2370	0.000561505
2382	0.00176473
2394	0.00264709
2406	0.00352946
2418	0.00264709
2430	0.00280752
2442	0.00296795
2454	0.0032086
2466	0.00328882
2478	0.0032086
2490	0.00112301
2502	0.000561505
2514	0.000401075
2526	0.000561505
2538	0.00080215
2550	0.00136366
2562	0.00200538
2574	0.00328882
2586	0.00256688
2598	0.00112301
2610	0.00048129
2622	0.00096258
2634	0.00096258
2646	0.000882365
2658	0.00064172
2670	0.000401075
2682	0.00048129
2694	0.000882365
2706	0.00144387
2718	0.00096258
2730	0.00128344
2742	0.0010428
2754	0.00128344
2766	0.00064172
2778	0.0016043
2790	0.00224602
2802	0.00136366
2814	0.00080215
2826	0.000882365
2838	0.000401075
2850	0.0010428
2862	0.00128344
2874	0.0010428
2886	0.00128344
2898	0.00120323
2910	0.00128344
2922	0.00208559
2934	0.00264709
2946	0.00240645
2958	0.00176473
2970	0.00176473
2982	0.00128344
2994	0.00136366
3006	0.0016043
3018	0.00256688
3030	0.00401075
3042	0.0111499
3054	0.0211768
3066	0.0152409
3078	0.0159628
3090	0.0161232
3102	0.00681828
3114	0.00617656
3126	0.00505355
3138	0.00288774
3150	0.00216581
3162	0.00240645
3174	0.00216581
3186	0.00200538
3198	0.00112301
3210	0.00064172
3222	0.000401075
3234	0.00048129
3246	0.00048129
3258	0.0010428
3270	0.00096258
3282	0.00080215
3294	0.00168452
3306	0.00288774
3318	0.00248667
3330	0.00128344
3342	0.00096258
3354	0.00152409
3366	0.00200538
3378	0.00368989
3390	0.00633699
3402	0.0134761
3414	0.0310432
3426	0.0693058
3438	0.0918462
3450	0.0459632
3462	0.0113103
3474	0.00633699
3486	0.00577548
3498	0.0069787
3510	0.0113905
3522	0.021257
3534	0.0397866
3546	0.0636907
3558	0.0644929
3570	0.0249469
3582	0.00778086
3594	0.00393053
3606	0.00216581
3618	0.00120323
3630	0.00136366
3642	0.00064172
3654	0.000561505
3666	0.00144387
3678	0.000401075
3690	0.000721935
3702	0.00112301
3714	0.000882365
3726	0.00064172
3738	0.00168452
3750	0.00120323
3762	0.000561505
3774	0.00048129
3786	0.00152409
3798	0.000240645
3810	0.000561505
3822	0.00128344
3834	0.0010428
3846	0.00048129
3858	0.00176473
3870	0.0016043
3882	0
3894	0.00184495
3906	0.00240645
3918	0.00112301
3930	0.0016043
3942	0.00016043
3954	0.00176473
3966	0.00144387
