Infrared Spectrum: Benzene, cyclohexyl-
Formula: C 12 H 16
CAS: 827-52-1
Origin: Sadtler Research Labs Under US-EPA Contract
1/CM	ABSORBANCE
450	0
462	0.0129648
474	0.0085248
486	0.0108336
498	0.0140304
510	0.03108
522	0.0703296
534	0.0465312
546	0.011544
558	0.005328
570	0.0049728
582	0.006216
594	0.0042624
606	0.0065712
618	0.0138528
630	0.0200688
642	0.0074592
654	0.0131424
666	0.0245088
678	0.0475968
690	0.188434
702	0.267288
714	0.0948384
726	0.058608
738	0.092352
750	0.15611
762	0.130003
774	0.0420912
786	0.0202464
798	0.0110112
810	0.0085248
822	0.0127872
834	0.0122544
846	0.00888
858	0.021312
870	0.0273504
882	0.0271728
894	0.0237984
906	0.0111888
918	0.0094128
930	0.0081696
942	0.0067488
954	0.007104
966	0.0069264
978	0.0108336
990	0.0323232
1002	0.043512
1014	0.0305472
1026	0.0529248
1038	0.027528
1050	0.0143856
1062	0.0259296
1074	0.0317904
1086	0.0165168
1098	0.009768
1110	0.0094128
1122	0.0103008
1134	0.0129648
1146	0.0090576
1158	0.0090576
1170	0.0094128
1182	0.0122544
1194	0.0126096
1206	0.0085248
1218	0.0074592
1230	0.012432
1242	0.0103008
1254	0.0149184
1266	0.0296592
1278	0.0207792
1290	0.0140304
1302	0.0136752
1314	0.0138528
1326	0.0161616
1338	0.0152736
1350	0.0360528
1362	0.0250416
1374	0.0193584
1386	0.0126096
1398	0.0110112
1410	0.0110112
1422	0.016872
1434	0.0332112
1446	0.132312
1458	0.164813
1470	0.0644688
1482	0.0463536
1494	0.106382
1506	0.0776112
1518	0.0237984
1530	0.0122544
1542	0.012432
1554	0.0085248
1566	0.00888
1578	0.0179376
1590	0.0374736
1602	0.0951936
1614	0.0459984
1626	0.0134976
1638	0.0092352
1650	0.00888
1662	0.0092352
1674	0.00888
1686	0.007992
1698	0.0072816
1710	0.0078144
1722	0.0094128
1734	0.009768
1746	0.0099456
1758	0.0087024
1770	0.0083472
1782	0.011544
1794	0.0250416
1806	0.0129648
1818	0.0090576
1830	0.0078144
1842	0.0095904
1854	0.011544
1866	0.0143856
1878	0.01332
1890	0.0108336
1902	0.0081696
1914	0.0072816
1926	0.0117216
1938	0.018648
1950	0.0191808
1962	0.0129648
1974	0.0056832
1986	0.005328
1998	0.0051504
2010	0.00444
2022	0.0047952
2034	0.0047952
2046	0.0047952
2058	0.0047952
2070	0.0046176
2082	0.0051504
2094	0.0051504
2106	0.0049728
2118	0.0051504
2130	0.0056832
2142	0.0055056
2154	0.0056832
2166	0.0055056
2178	0.0055056
2190	0.007104
2202	0.0072816
2214	0.0065712
2226	0.0072816
2238	0.0072816
2250	0.0063936
2262	0.0058608
2274	0.0051504
2286	0.0049728
2298	0.0040848
2310	0.0051504
2322	0.005328
2334	0.006216
2346	0.0069264
2358	0.0058608
2370	0.0083472
2382	0.0072816
2394	0.0069264
2406	0.0065712
2418	0.0058608
2430	0.0067488
2442	0.0056832
2454	0.0049728
2466	0.0055056
2478	0.0076368
2490	0.0081696
2502	0.0065712
2514	0.0058608
2526	0.0069264
2538	0.0065712
2550	0.0058608
2562	0.0078144
2574	0.0095904
2586	0.0110112
2598	0.0113664
2610	0.0111888
2622	0.0122544
2634	0.0131424
2646	0.0134976
2658	0.019536
2670	0.0225552
2682	0.0190032
2694	0.0147408
2706	0.0131424
2718	0.0104784
2730	0.0087024
2742	0.00888
2754	0.0095904
2766	0.011544
2778	0.015984
2790	0.020424
2802	0.0253968
2814	0.0261072
2826	0.0303696
2838	0.047952
2850	0.167477
2862	0.6216
2874	0.424286
2886	0.160195
2898	0.140482
2910	0.301032
2922	0.669907
2934	1.66251
2946	1.25776
2958	0.210634
2970	0.0566544
2982	0.0245088
2994	0.0202464
3006	0.0380064
3018	0.0685536
3030	0.193939
3042	0.20051
3054	0.104962
3066	0.174048
3078	0.20424
3090	0.106738
3102	0.0747696
3114	0.0412032
3126	0.0197136
3138	0.0103008
3150	0.0111888
3162	0.01332
3174	0.0099456
3186	0.0060384
3198	0.005328
3210	0.0056832
3222	0.0058608
3234	0.0058608
3246	0.0058608
3258	0.006216
3270	0.0072816
3282	0.0065712
3294	0.0060384
3306	0.0060384
3318	0.005328
3330	0.0058608
3342	0.0072816
3354	0.0069264
3366	0.0065712
3378	0.0063936
3390	0.0058608
3402	0.006216
3414	0.0065712
3426	0.0081696
3438	0.0085248
3450	0.0065712
3462	0.0055056
3474	0.0051504
3486	0.0051504
3498	0.0051504
3510	0.0047952
3522	0.0047952
3534	0.0049728
3546	0.0049728
3558	0.005328
3570	0.0049728
3582	0.0047952
3594	0.0046176
3606	0.005328
3618	0.0056832
3630	0.0049728
3642	0.0069264
3654	0.0087024
3666	0.0058608
3678	0.0058608
3690	0.0076368
3702	0.0072816
3714	0.0067488
3726	0.0076368
3738	0.0055056
3750	0.0058608
3762	0.0063936
3774	0.0060384
3786	0.0049728
3798	0.0047952
3810	0.005328
3822	0.0055056
3834	0.0055056
3846	0.0051504
3858	0.0065712
3870	0.0051504
3882	0.0046176
3894	0.0058608
3906	0.00444
3918	0.0063936
3930	0.0069264
3942	0.0063936
3954	0.0060384
3966	0.006216
