Infrared Spectrum: 2',4'-Dimethoxyacetophenone
Formula: C 10 H 12 O 3
CAS: 829-20-9
Origin: Sadtler Research Labs Under US-EPA Contract
1/CM	ABSORBANCE
450	0.0580443
462	0.0324761
474	0.0147129
486	0.0235945
498	0.0143541
510	0.0341807
522	0.0560706
534	0.052213
546	0.0500599
558	0.0670156
570	0.0820874
582	0.0506878
594	0.0386663
606	0.0391149
618	0.0273625
630	0.017494
642	0.0277213
654	0.0243122
666	0.0218003
678	0.00843302
690	0.00699761
702	0.00708733
714	0.010317
726	0.0171352
738	0.0141747
750	0.0120215
762	0.00870216
774	0.00852274
786	0.018122
798	0.0483553
810	0.0506878
822	0.0683613
834	0.107386
846	0.0858553
858	0.039384
870	0.0205443
882	0.0175837
894	0.0142644
906	0.0192883
918	0.0415371
930	0.0540969
942	0.0514055
954	0.0777812
966	0.111065
978	0.0601974
990	0.0452154
1002	0.0481759
1014	0.0840611
1026	0.19387
1038	0.30619
1050	0.182566
1062	0.0916867
1074	0.109809
1086	0.072847
1098	0.0620814
1110	0.0979666
1122	0.227064
1134	0.30009
1146	0.252363
1158	0.412411
1170	0.34387
1182	0.162291
1194	0.19082
1206	0.435826
1218	0.398146
1230	0.352303
1242	0.451526
1254	0.632118
1266	0.89713
1278	0.434211
1290	0.29372
1302	0.296771
1314	0.208134
1326	0.128918
1338	0.0755383
1350	0.114922
1362	0.230293
1374	0.0910587
1386	0.0732058
1398	0.129725
1410	0.205712
1422	0.193601
1434	0.14686
1446	0.169199
1458	0.200239
1470	0.285556
1482	0.203559
1494	0.263756
1506	0.19369
1518	0.0617225
1530	0.046561
1542	0.0582237
1554	0.0914175
1566	0.197458
1578	0.354366
1590	0.489564
1602	0.82823
1614	0.704606
1626	0.219259
1638	0.0972489
1650	0.0807417
1662	0.0758972
1674	0.117345
1686	0.352841
1698	0.563846
1710	0.245096
1722	0.108642
1734	0.0706938
1746	0.0415371
1758	0.0256579
1770	0.0194677
1782	0.0139952
1794	0.0130981
1806	0.00888159
1818	0.0061902
1830	0.00798446
1842	0.00843302
1854	0.00780503
1866	0.00870216
1878	0.00933015
1890	0.0116627
1902	0.00995814
1914	0.00977872
1926	0.009689
1938	0.00950958
1950	0.00861245
1962	0.00852274
1974	0.0082536
1986	0.00735647
1998	0.00717704
2010	0.00475479
2022	0.00574163
2034	0.00627991
2046	0.00780503
2058	0.00879187
2070	0.00950958
2082	0.0082536
2094	0.00672848
2106	0.00610048
2118	0.00538278
2130	0.00466508
2142	0.00439594
2154	0.00475479
2166	0.00547249
2178	0.0061902
2190	0.00726675
2202	0.00672848
2214	0.00574163
2226	0.00403709
2238	0.00313995
2250	0.00215311
2262	0.00179426
2274	0.00224282
2286	0.00367823
2298	0.00583134
2310	0.0069079
2322	0.00843302
2334	0.00915073
2346	0.0089713
2358	0.00547249
2370	0.0105861
2382	0.00789474
2394	0.00403709
2406	0.00439594
2418	0.00556221
2430	0.00583134
2442	0.00457536
2454	0.00403709
2466	0.00502393
2478	0.00529307
2490	0.00529307
2502	0.00511364
2514	0.00511364
2526	0.00547249
2538	0.00475479
2550	0.00466508
2562	0.00601077
2574	0.00735647
2586	0.00798446
2598	0.00861245
2610	0.00726675
2622	0.00556221
2634	0.00403709
2646	0.00475479
2658	0.00538278
2670	0.00448565
2682	0.00475479
2694	0.00466508
2706	0.00529307
2718	0.00520335
2730	0.00547249
2742	0.00583134
2754	0.00583134
2766	0.00717704
2778	0.00861245
2790	0.0107656
2802	0.0137261
2814	0.0191089
2826	0.0333732
2838	0.0776915
2850	0.119857
2862	0.0711424
2874	0.0523027
2886	0.0524821
2898	0.0647728
2910	0.082536
2922	0.103708
2934	0.12201
2946	0.195664
2958	0.202123
2970	0.148385
2982	0.087829
2994	0.0863039
3006	0.166148
3018	0.142733
3030	0.0470993
3042	0.0310407
3054	0.0258373
3066	0.0228768
3078	0.027811
3090	0.036872
3102	0.0295156
3114	0.0169558
3126	0.0125598
3138	0.0108553
3150	0.0101376
3162	0.00708733
3174	0.00681819
3186	0.00547249
3198	0.0048445
3210	0.00394737
3222	0.00421651
3234	0.00340909
3246	0.0027811
3258	0.00331938
3270	0.00349881
3282	0.00251196
3294	0.00313995
3306	0.00287082
3318	0.00322967
3330	0.00260168
3342	0.00376795
3354	0.00547249
3366	0.00861245
3378	0.0076256
3390	0.00466508
3402	0.00466508
3414	0.00385766
3426	0.00296053
3438	0.00269139
3450	0.00224282
3462	0.00331938
3474	0.00296053
3486	0.0027811
3498	0.00331938
3510	0.00296053
3522	0.00322967
3534	0.00340909
3546	0.00394737
3558	0.00260168
3570	0.00331938
3582	0.00313995
3594	0.00448565
3606	0.00331938
3618	0.00493421
3630	0.00421651
3642	0.00511364
3654	0.00394737
3666	0.00511364
3678	0.0069079
3690	0.00430622
3702	0.00520335
3714	0.00547249
3726	0.00538278
3738	0.00636962
3750	0.00475479
3762	0.00726675
3774	0.00654905
3786	0.00627991
3798	0.00583134
3810	0.00771532
3822	0.0069079
3834	0.00448565
3846	0.00502393
3858	0.00744618
3870	0.0082536
3882	0.0076256
3894	0.00789474
3906	0.0082536
3918	0.00807417
3930	0.00933015
3942	0.00780503
3954	0.00995814
3966	0.00394737
