Infrared Spectrum: Propanedioic acid, phenyl-, diethyl ester
Formula: C 13 H 16 O 4
CAS: 83-13-6
Origin: Sadtler Research Labs Under US-EPA Contract
1/CM	ABSORBANCE
450	0
462	0.0465267
474	0.0491603
486	0.0594881
498	0.0610889
510	0.0620701
522	0.0641356
534	0.0536529
546	0.0674405
558	0.0555636
570	0.0665627
582	0.07152
594	0.0772519
606	0.0717782
618	0.0602627
630	0.0686282
642	0.0650651
654	0.0656332
666	0.0684217
678	0.0788528
690	0.102297
702	0.122384
714	0.125173
726	0.116239
738	0.0824675
750	0.0744634
762	0.0632578
774	0.061502
786	0.0620184
798	0.0706422
810	0.0625348
822	0.0634127
834	0.067234
846	0.0699708
858	0.0678536
870	0.073947
882	0.0698676
894	0.0655299
906	0.0629996
918	0.0610373
930	0.0636709
942	0.0698159
954	0.0683184
966	0.069093
978	0.0681635
990	0.0669241
1002	0.0711585
1014	0.0923305
1026	0.165296
1038	0.241102
1050	0.192923
1062	0.110094
1074	0.0957903
1086	0.0968231
1098	0.135191
1110	0.147688
1122	0.186985
1134	0.307355
1146	0.365346
1158	0.316082
1170	0.266147
1182	0.219982
1194	0.233666
1206	0.272086
1218	0.296305
1230	0.231756
1242	0.219982
1254	0.236455
1266	0.235887
1278	0.200618
1290	0.202373
1302	0.23408
1314	0.203354
1326	0.144899
1338	0.109371
1350	0.0965649
1362	0.0874248
1374	0.126309
1386	0.0830355
1398	0.0795757
1410	0.0731208
1422	0.067234
1434	0.0677504
1446	0.0783364
1458	0.0951707
1470	0.0943445
1482	0.0806601
1494	0.0798855
1506	0.0781814
1518	0.0568545
1530	0.0563898
1542	0.0545308
1554	0.0548923
1566	0.0565447
1578	0.0571127
1590	0.0594881
1602	0.0625348
1614	0.0613471
1626	0.0565963
1638	0.0545308
1650	0.0543759
1662	0.0574742
1674	0.0580422
1686	0.0601078
1698	0.064084
1710	0.0754446
1722	0.0924338
1734	0.145932
1746	0.330593
1758	0.506424
1770	0.323157
1782	0.193078
1794	0.0979075
1806	0.0745667
1818	0.0639807
1830	0.0583004
1842	0.0561316
1854	0.0541693
1866	0.0547373
1878	0.0552537
1890	0.0553054
1902	0.054066
1914	0.0530333
1926	0.052207
1938	0.0539111
1950	0.0539111
1962	0.0535496
1974	0.0512259
1986	0.0510193
1998	0.0506062
2010	0.0508128
2022	0.0506579
2034	0.0501931
2046	0.0501415
2058	0.0498833
2070	0.0499349
2082	0.0502447
2094	0.0497284
2106	0.0496767
2118	0.0493152
2130	0.0490054
2142	0.0488505
2154	0.0485923
2166	0.0483857
2178	0.0481275
2190	0.0482308
2202	0.0481275
2214	0.047921
2226	0.0481792
2238	0.0483857
2250	0.0477661
2262	0.047921
2274	0.047921
2286	0.048489
2298	0.0489538
2310	0.050348
2322	0.0498316
2334	0.0496251
2346	0.0501415
2358	0.0492636
2370	0.0497284
2382	0.0488505
2394	0.0468882
2406	0.0465267
2418	0.047198
2430	0.0468882
2442	0.0468882
2454	0.0462685
2466	0.046062
2478	0.0461136
2490	0.0456489
2502	0.0455972
2514	0.045494
2526	0.0451325
2538	0.0452874
2550	0.045339
2562	0.0450292
2574	0.0451841
2586	0.045339
2598	0.0447194
2610	0.0448227
2622	0.0453907
2634	0.0448227
2646	0.0449259
2658	0.0450808
2670	0.0449776
2682	0.0449259
2694	0.0452874
2706	0.0450292
2718	0.0456489
2730	0.0462169
2742	0.0463202
2754	0.0462685
2766	0.0464751
2778	0.0477661
2790	0.047198
2802	0.0475079
2814	0.0479726
2826	0.0491087
2838	0.0493669
2850	0.0503997
2862	0.0523619
2874	0.0563898
2886	0.0666143
2898	0.065943
2910	0.0744118
2922	0.0751347
2934	0.0791109
2946	0.106118
2958	0.0896453
2970	0.101264
2982	0.147429
2994	0.158945
3006	0.10524
3018	0.0782331
3030	0.0726044
3042	0.0882511
3054	0.0660979
3066	0.0715717
3078	0.0879412
3090	0.062225
3102	0.0610373
3114	0.0533947
3126	0.0502447
3138	0.0480243
3150	0.0481792
3162	0.0474562
3174	0.0478177
3186	0.0477661
3198	0.0472497
3210	0.0469915
3222	0.0464751
3234	0.0466817
3246	0.0463202
3258	0.0463202
3270	0.0466817
3282	0.0462169
3294	0.0464235
3306	0.0464235
3318	0.0467333
3330	0.0467333
3342	0.0464751
3354	0.04663
3366	0.0471464
3378	0.047353
3390	0.047353
3402	0.0460103
3414	0.0470948
3426	0.0469915
3438	0.0469399
3450	0.0467849
3462	0.0476112
3474	0.0479726
3486	0.0495218
3498	0.0494185
3510	0.0495218
3522	0.0482308
3534	0.0481275
3546	0.0479726
3558	0.0464751
3570	0.0469399
3582	0.0481792
3594	0.0467333
3606	0.0470431
3618	0.0473013
3630	0.0446677
3642	0.0477661
3654	0.0462169
3666	0.0481792
3678	0.0473013
3690	0.0470948
3702	0.0470948
3714	0.0462169
3726	0.0471464
3738	0.0476628
3750	0.0444612
3762	0.0480759
3774	0.0465267
3786	0.0476112
3798	0.0468366
3810	0.0470431
3822	0.045494
3834	0.04663
3846	0.0452874
3858	0.0467849
3870	0.0469399
3882	0.0489021
3894	0.0465784
3906	0.0459071
3918	0.0470948
3930	0.0473013
3942	0.0475079
3954	0.0461653
3966	0.0468366
