Infrared Spectrum: Acenaphthene
Formula: C 12 H 10
CAS: 83-32-9
Origin: Sadtler Research Labs Under US-EPA Contract
1/CM	ABSORBANCE
450	0.0380266
462	0.00734448
474	0.0205234
486	0.0265294
498	0
510	0.0270785
522	0.0124925
534	0.0242986
546	0.0157872
558	0.0147233
570	0.0108451
582	0.0176405
594	0.0135907
606	0.0149978
618	0.0215186
630	0.0187044
642	0.0174689
654	0.0169198
666	0.0128014
678	0.010399
690	0.0041184
702	0.00809952
714	0.0119434
726	0.0105706
738	0.0271814
750	0.0624624
762	0.165011
774	0.276276
786	0.334174
798	0.161956
810	0.0450622
822	0.0415615
834	0.101278
846	0.0424195
858	0.0128357
870	0.0104676
882	0.0101587
894	0.0126298
906	0.0108794
918	0.006864
930	0.0063492
942	0.00765336
954	0.0104333
966	0.015547
978	0.0150665
990	0.0164393
1002	0.0259802
1014	0.029172
1026	0.0194251
1038	0.0111883
1050	0.00851136
1062	0.00888888
1074	0.0109481
1086	0.0169884
1098	0.0157186
1110	0.00820248
1122	0.00991848
1134	0.00803088
1146	0.00936936
1158	0.0102274
1170	0.0165079
1182	0.0140026
1194	0.00885456
1206	0.011154
1218	0.0106392
1230	0.00782496
1242	0.0104333
1254	0.0141742
1266	0.0142771
1278	0.0109138
1290	0.0072072
1302	0.00744744
1314	0.00858
1326	0.0084084
1338	0.011154
1350	0.0235435
1362	0.0668554
1374	0.0658258
1386	0.0131102
1398	0.00803088
1410	0.0168854
1422	0.0294809
1434	0.0307164
1446	0.0247104
1458	0.0226855
1470	0.0166795
1482	0.020592
1494	0.0308537
1506	0.0262548
1518	0.0119777
1530	0.0123209
1542	0.00696696
1554	0.00576576
1566	0.00940368
1578	0.0147576
1590	0.0459545
1602	0.11202
1614	0.122076
1626	0.0337022
1638	0.0146203
1650	0.0084084
1662	0.0132818
1674	0.00902616
1686	0.0084084
1698	0.0115658
1710	0.0126984
1722	0.00912912
1734	0.0149978
1746	0.0181896
1758	0.0288288
1770	0.0300643
1782	0.0104333
1794	0.00717288
1806	0.00555984
1818	0.00779064
1830	0.0104676
1842	0.0126298
1854	0.0125611
1866	0.0087516
1878	0.0058344
1890	0.00689832
1902	0.016199
1914	0.0302359
1926	0.0200429
1938	0.00580008
1950	0.00350064
1962	0.00346632
1974	0.00319176
1986	0.00312312
1998	0.00329472
2010	0.00350064
2022	0.00367224
2034	0.00322608
2046	0.003432
2058	0.00284856
2070	0.00277992
2082	0.00233376
2094	0.00219648
2106	0.00229944
2118	0.00219648
2130	0.0024024
2142	0.00315744
2154	0.00322608
2166	0.0027456
2178	0.00243672
2190	0.00250536
2202	0.00281424
2214	0.00370656
2226	0.00346632
2238	0.00353496
2250	0.00329472
2262	0.0030888
2274	0.00363792
2286	0.0048048
2298	0.00477048
2310	0.00507936
2322	0.00332904
2334	0.00226512
2346	0.00181896
2358	0.003432
2370	0.00126984
2382	0.00350064
2394	0.00209352
2406	0.00250536
2418	0.0036036
2430	0.00322608
2442	0.00199056
2454	0.00199056
2466	0.00178464
2478	0.00175032
2490	0.00199056
2502	0.0027456
2514	0.00181896
2526	0.00202488
2538	0.00164736
2550	0.00096096
2562	0.00144144
2574	0.00216216
2586	0.00161304
2598	0.00113256
2610	0.00161304
2622	0.00195624
2634	0.00260832
2646	0.00267696
2658	0.00233376
2670	0.00226512
2682	0.00168168
2694	0.0020592
2706	0.00192192
2718	0.00212784
2730	0.00243672
2742	0.00322608
2754	0.00281424
2766	0.00298584
2778	0.00336336
2790	0.0041184
2802	0.00580008
2814	0.00858
2826	0.0116688
2838	0.0222737
2850	0.054912
2862	0.0545688
2874	0.0296182
2886	0.0345946
2898	0.0542599
2910	0.0491806
2922	0.0998026
2934	0.260763
2946	0.297417
2958	0.119434
2970	0.0294809
2982	0.011909
2994	0.0107765
3006	0.0175718
3018	0.0418704
3030	0.114594
3042	0.249095
3054	0.295083
3066	0.246143
3078	0.137349
3090	0.0437237
3102	0.027456
3114	0.0188074
3126	0.00621192
3138	0.00356928
3150	0.0036036
3162	0.00573144
3174	0.00442728
3186	0.00284856
3198	0.00442728
3210	0.00404976
3222	0.00384384
3234	0.00339768
3246	0.00253968
3258	0.00192192
3270	0.00202488
3282	0.00250536
3294	0.00151008
3306	0.00164736
3318	0.00133848
3330	0.00106392
3342	0.00202488
3354	0.00212784
3366	0.00243672
3378	0.0018876
3390	0.0020592
3402	0.00243672
3414	0.00175032
3426	0.00226512
3438	0.0022308
3450	0.0029172
3462	0.00271128
3474	0.00284856
3486	0.00415272
3498	0.00336336
3510	0.00408408
3522	0.00367224
3534	0.0032604
3546	0.00456456
3558	0.00552552
3570	0.00525096
3582	0.00473616
3594	0.00363792
3606	0.00459888
3618	0.00494208
3630	0.00229944
3642	0.0058344
3654	0.00350064
3666	0.00356928
3678	0.00487344
3690	0.00267696
3702	0.00356928
3714	0.00380952
3726	0.00751608
3738	0.00487344
3750	0.0010296
3762	0.00380952
3774	0.00456456
3786	0.00408408
3798	0.0020592
3810	0.00302016
3822	0.00216216
3834	0.00490776
3846	0.00648648
3858	0.00871728
3870	0.00449592
3882	0.00665808
3894	0.00216216
3906	0.0039468
3918	0.00432432
3930	0.00538824
3942	0.0053196
3954	0.00593736
3966	0.00429
