Infrared Spectrum: 1H-Indole, 3-methyl-
Formula: C 9 H 9 N
CAS: 83-34-1
Origin: Sadtler Research Labs Under US-EPA Contract
1/CM	ABSORBANCE
450	0
462	0.0491997
474	0.0312191
486	0.0185075
498	0.0270038
510	0.0258183
522	0.0361588
534	0.0276625
546	0.0248962
558	0.0405716
570	0.0657313
582	0.047092
594	0.0306263
606	0.0306922
618	0.0252255
630	0.0217348
642	0.021142
654	0.0248304
666	0.033656
678	0.0507804
690	0.0691561
702	0.0578277
714	0.102154
726	0.317526
738	0.608442
750	0.354145
762	0.180135
774	0.220641
786	0.238424
798	0.172561
810	0.126786
822	0.0882564
834	0.056247
846	0.0400447
858	0.0321411
870	0.0326022
882	0.0450503
894	0.0554566
906	0.0503852
918	0.0430085
930	0.0324705
942	0.0289797
954	0.027399
966	0.0285845
978	0.0379371
990	0.0372126
1002	0.0709345
1014	0.0897713
1026	0.0588815
1038	0.0532173
1050	0.0825263
1062	0.129091
1074	0.134558
1086	0.120859
1098	0.0967527
1110	0.0563129
1122	0.0457748
1134	0.0461041
1146	0.0425475
1158	0.0450503
1170	0.038925
1182	0.0333267
1194	0.0297701
1206	0.0451162
1218	0.108015
1230	0.120924
1242	0.0887833
1254	0.0797601
1266	0.0497266
1278	0.0380688
1290	0.0559177
1302	0.0651385
1314	0.0822629
1326	0.151814
1338	0.180596
1350	0.125732
1362	0.0621747
1374	0.0378054
1386	0.0513731
1398	0.0902323
1410	0.114799
1422	0.0789039
1434	0.0671144
1446	0.178094
1458	0.229467
1470	0.126786
1482	0.0572349
1494	0.044721
1506	0.038003
1518	0.0401764
1530	0.0481459
1542	0.0704075
1554	0.104393
1566	0.108872
1578	0.0744911
1590	0.045182
1602	0.041823
1614	0.0520318
1626	0.0523611
1638	0.035105
1650	0.0400447
1662	0.0364222
1674	0.0279259
1686	0.0226569
1698	0.0228545
1710	0.0243034
1722	0.0237107
1734	0.0271356
1746	0.0347757
1758	0.0391885
1770	0.0357636
1782	0.0305604
1794	0.030758
1806	0.02404
1818	0.0215372
1830	0.0254231
1842	0.0258842
1854	0.0252914
1866	0.0314825
1878	0.0328656
1890	0.0253573
1902	0.0292432
1914	0.033656
1926	0.0254231
1938	0.0198248
1950	0.0200882
1962	0.0206151
1974	0.0195613
1986	0.0186392
1998	0.0190344
2010	0.0191003
2022	0.0189027
2034	0.0182441
2046	0.0185075
2058	0.018771
2070	0.0190344
2082	0.0188368
2094	0.0189027
2106	0.019693
2118	0.0189027
2130	0.018771
2142	0.0185075
2154	0.0187051
2166	0.0191003
2178	0.0191003
2190	0.0199565
2202	0.0202199
2214	0.0201541
2226	0.0195613
2238	0.0193637
2250	0.019693
2262	0.0200882
2274	0.0210103
2286	0.0227886
2298	0.0260159
2310	0.0277942
2322	0.0255548
2334	0.0252255
2346	0.0268721
2358	0.0266087
2370	0.0277942
2382	0.0281235
2394	0.0210762
2406	0.0196272
2418	0.018771
2430	0.0184416
2442	0.0200224
2454	0.022591
2466	0.02595
2478	0.0271356
2490	0.02595
2502	0.0260159
2514	0.0237107
2526	0.0220641
2538	0.0219324
2550	0.022591
2562	0.022591
2574	0.0216031
2586	0.0206151
2598	0.0200882
2610	0.0210103
2622	0.0216689
2634	0.0223276
2646	0.0233155
2658	0.0230521
2670	0.0233814
2682	0.0233155
2694	0.0229203
2706	0.022591
2718	0.0217348
2730	0.0217348
2742	0.0252255
2754	0.0275307
2766	0.0239741
2778	0.0227227
2790	0.0253573
2802	0.0272673
2814	0.0304946
2826	0.0325363
2838	0.0348415
2850	0.0430085
2862	0.0723834
2874	0.101561
2886	0.0962258
2898	0.0983335
2910	0.110123
2922	0.127313
2934	0.175393
2946	0.180794
2958	0.118685
2970	0.116578
2982	0.0914837
2994	0.0538759
3006	0.0529539
3018	0.0771914
3030	0.109333
3042	0.136007
3054	0.172298
3066	0.234999
3078	0.21175
3090	0.122834
3102	0.0752814
3114	0.0420206
3126	0.0299018
3138	0.0268062
3150	0.0266745
3162	0.0252255
3174	0.0243034
3186	0.0253573
3198	0.0250279
3210	0.0246986
3222	0.0230521
3234	0.0226569
3246	0.0221958
3258	0.0229203
3270	0.0213396
3282	0.0202199
3294	0.0200882
3306	0.0191661
3318	0.0182441
3330	0.0189027
3342	0.0186392
3354	0.0197589
3366	0.0202199
3378	0.0196272
3390	0.0200224
3402	0.0219982
3414	0.0215372
3426	0.0228545
3438	0.0247645
3450	0.0275307
3462	0.0327998
3474	0.04808
3486	0.0908251
3498	0.164855
3510	0.236316
3522	0.223539
3534	0.123954
3546	0.0391885
3558	0.0272673
3570	0.028848
3582	0.0266745
3594	0.0281235
3606	0.0243693
3618	0.0239741
3630	0.0249621
3642	0.0220641
3654	0.0234472
3666	0.0198248
3678	0.0261476
3690	0.0227886
3702	0.0237107
3714	0.023579
3726	0.0224593
3738	0.0230521
3750	0.0208127
3762	0.0216031
3774	0.0212737
3786	0.0220641
3798	0.0223276
3810	0.020681
3822	0.0226569
3834	0.0224593
3846	0.0241717
3858	0.025489
3870	0.0253573
3882	0.0250279
3894	0.0229203
3906	0.0248962
3918	0.0235131
3930	0.02404
3942	0.0229862
3954	0.0232496
3966	0.0229203
