Infrared Spectrum: Benzene, [(phenylmethyl)thio]-
Formula: C 13 H 12 S
CAS: 831-91-4
Origin: Sadtler Research Labs Under US-EPA Contract
1/CM	ABSORBANCE
450	0.0125369
462	0.0284779
474	0.0461625
486	0.0682889
498	0.0252399
510	0.00714024
522	0.00298894
534	0.00136993
546	0.00506459
558	0.0168958
570	0.0212962
582	0.00564577
594	0.00572879
606	0.000871773
618	0.00348709
630	0.00236624
642	0.00763839
654	0.0241191
666	0.0599448
678	0.143303
690	0.371915
702	0.364111
714	0.227989
726	0.175808
738	0.275314
750	0.206029
762	0.0928646
774	0.0363654
786	0.0148617
798	0.00660057
810	0.00323801
822	0.0031965
834	0.00564577
846	0.00647603
858	0.0110009
870	0.0138653
882	0.00963102
894	0.0079705
906	0.01756
918	0.0226246
930	0.00718175
942	0.00506459
954	0.00406827
966	0.00357012
978	0.00240775
990	0.00232473
1002	0.0132011
1014	0.0172279
1026	0.106356
1038	0.0191375
1050	0.00888378
1062	0.0323386
1074	0.036573
1086	0.0498156
1098	0.0260287
1110	0.0111255
1122	0.0086347
1134	0.00390222
1146	0.00315499
1158	0.00618544
1170	0.0114991
1182	0.020715
1194	0.0291006
1206	0.020798
1218	0.0216698
1230	0.0711948
1242	0.0621034
1254	0.017477
1266	0.00273986
1278	0.00788747
1290	0.0125784
1302	0.0165222
1314	0.0161486
1326	0.0124539
1338	0.01125
1350	0.00684964
1362	0.00801201
1374	0.0107519
1386	0.0108349
1398	0.0111255
1410	0.0176015
1422	0.0406412
1434	0.0716099
1446	0.0922004
1458	0.0834411
1470	0.0782935
1482	0.176223
1494	0.129479
1506	0.0524309
1518	0.0133672
1530	0.0121218
1542	0.0134502
1554	0.0153183
1566	0.0342897
1578	0.0909135
1590	0.114783
1602	0.0690361
1614	0.0314669
1626	0.0131181
1638	0.00875924
1650	0.0101707
1662	0.00792898
1674	0.00867622
1686	0.00647603
1698	0.00975556
1710	0.017643
1722	0.0266098
1734	0.0273156
1746	0.0132426
1758	0.0101707
1770	0.0113746
1782	0.0163976
1794	0.0260287
1806	0.0150692
1818	0.0095895
1830	0.00801201
1842	0.00714024
1854	0.00934042
1866	0.0152768
1878	0.0176015
1890	0.0145296
1902	0.00743083
1914	0.00684964
1926	0.01262
1938	0.022251
1950	0.0245342
1962	0.0152768
1974	0.00327953
1986	0.00203414
1998	0.00141144
2010	0.00178506
2022	0.00166052
2034	0.000622695
2046	0.000290591
2058	0.000332104
2070	0.000581182
2082	0.00041513
2094	0.000332104
2106	0.000290591
2118	4.1513e-05
2130	0.000581182
2142	0.000539669
2154	0.000373617
2166	0.000622695
2178	0.000622695
2190	0.000539669
2202	0.000747234
2214	0.00120388
2226	0.0012869
2238	0.00145295
2250	0.0019096
2262	0.00195111
2274	0.00228321
2286	0.00327953
2298	0.00485702
2310	0.00817806
2322	0.00726478
2334	0.00257381
2346	0.00203414
2358	0.00361163
2370	0.000581182
2382	0.00419281
2394	0.00207565
2406	0.00215868
2418	0.00232473
2430	0.00211716
2442	0.00132842
2454	0.00174355
2466	0.00166052
2478	0.00161901
2490	0.00170203
2502	0.00178506
2514	0.00186809
2526	0.00207565
2538	0.00211716
2550	0.00249078
2562	0.00220019
2574	0.00269834
2586	0.00348709
2598	0.00402676
2610	0.00460794
2622	0.00427584
2634	0.00390222
2646	0.0041513
2658	0.00498156
2670	0.00477399
2682	0.00427584
2694	0.00344558
2706	0.00340407
2718	0.00498156
2730	0.00473248
2742	0.00427584
2754	0.00249078
2766	0.00298894
2778	0.0038192
2790	0.00593636
2802	0.00730629
2814	0.00842714
2826	0.0106273
2838	0.0112085
2850	0.0105443
2862	0.0102952
2874	0.00996312
2886	0.00917437
2898	0.0122878
2910	0.0234964
2922	0.0561671
2934	0.0659642
2946	0.0386071
2958	0.0341652
2970	0.025489
2982	0.0164807
2994	0.020715
3006	0.0401431
3018	0.0765915
3030	0.153764
3042	0.161195
3054	0.119931
3066	0.293455
3078	0.306781
3090	0.184442
3102	0.0804937
3114	0.0378183
3126	0.0149447
3138	0.00946496
3150	0.00938194
3162	0.00601939
3174	0.00423433
3186	0.00273986
3198	0.00170203
3210	0.00145295
3222	0.00195111
3234	0.00132842
3246	0.000913286
3258	0.00107934
3270	0.00157749
3282	0.0012869
3294	0.00120388
3306	0.00120388
3318	0.000871773
3330	0.000996312
3342	0.00120388
3354	0.00116236
3366	0.0012869
3378	0.00149447
3390	0.00161901
3402	0.0019096
3414	0.00170203
3426	0.00157749
3438	0.00195111
3450	0.00236624
3462	0.00211716
3474	0.00203414
3486	0.00161901
3498	0.00236624
3510	0.00186809
3522	0.0022417
3534	0.00232473
3546	0.0019096
3558	0.00220019
3570	0.00166052
3582	0.00244927
3594	0.00236624
3606	0.00257381
3618	0.00211716
3630	0.00265683
3642	0.00390222
3654	0.00332104
3666	0.00419281
3678	0.00141144
3690	0.00269834
3702	0.00315499
3714	0.00261532
3726	0.00303045
3738	0.00174355
3750	0.00265683
3762	0.00311348
3774	0.00340407
3786	0.00386071
3798	0.00136993
3810	0.00315499
3822	0.00136993
3834	0.0019096
3846	0.00236624
3858	0.000124539
3870	0.00327953
3882	0.00149447
3894	0.00249078
3906	0.00265683
3918	0.00244927
3930	0.00220019
3942	0.00377768
3954	0.00290591
3966	0.00253229
