Infrared Spectrum: Phenol, 4-phenoxy-
Formula: C 12 H 10 O 2
CAS: 831-82-3
Origin: Sadtler Research Labs Under US-EPA Contract
1/CM	ABSORBANCE
450	0.0343518
462	0.026956
474	0.0292915
486	0.0315297
498	0.0568314
510	0.0456403
522	0.0199494
534	0.0140132
546	0.0163488
558	0.00759049
570	0.00982871
582	0.00953677
594	0.00330868
606	0.011775
618	0.0105099
630	0.00535227
642	0.018295
654	0.0115804
666	0.0144025
678	0.0448618
690	0.0757103
702	0.0497275
714	0.0215064
726	0.0320163
738	0.0632541
750	0.0773646
762	0.080284
774	0.0738613
786	0.0547878
798	0.0519657
810	0.0857336
822	0.0849551
834	0.125535
846	0.101207
858	0.0458349
870	0.106364
882	0.0404826
894	0.0197547
906	0.0186843
918	0.00934214
930	0.0108019
942	0.00953677
954	0.00661735
966	0.00924483
978	0.0090502
990	0.00642272
1002	0.0126508
1014	0.0238419
1026	0.0287076
1038	0.0101207
1050	0.0108992
1062	0.0181004
1074	0.0297781
1086	0.0420396
1098	0.045543
1110	0.0320163
1122	0.0284157
1134	0.0323082
1146	0.0543012
1158	0.165045
1170	0.433047
1182	0.342545
1194	0.191806
1206	0.181101
1218	0.309653
1230	0.895094
1242	0.688691
1254	0.172538
1266	0.120377
1278	0.0915725
1290	0.0730828
1302	0.0618917
1314	0.074056
1326	0.0810626
1338	0.0513818
1350	0.0215064
1362	0.0127481
1374	0.0118723
1386	0.0097314
1398	0.0107045
1410	0.018295
1422	0.0425262
1434	0.0833981
1446	0.0465161
1458	0.033768
1470	0.0591669
1482	0.28659
1494	0.699104
1506	0.63984
1518	0.223433
1530	0.0752237
1542	0.0297781
1554	0.0246204
1566	0.0301673
1578	0.0628648
1590	0.143149
1602	0.127287
1614	0.050506
1626	0.0258855
1638	0.0159595
1650	0.0126508
1662	0.0156676
1674	0.0120669
1686	0.00457376
1698	0.00690929
1710	0.00943946
1722	0.00700661
1734	0.00593615
1746	0.00544958
1758	0.00437913
1770	0.00827169
1782	0.00729855
1794	0.00321136
1806	0.00428182
1818	0.00525496
1830	0.00603347
1842	0.00934214
1854	0.0106072
1866	0.0116777
1878	0.00963409
1890	0.00632541
1902	0.00564421
1914	0.00652004
1926	0.0090502
1938	0.00875826
1950	0.00700661
1962	0.00739586
1974	0.00866095
1986	0.00788243
1998	0.00885557
2010	0.00739586
2022	0.00652004
2034	0.00856363
2046	0.00866095
2058	0.008369
2070	0.00885557
2082	0.00544958
2094	0.00389256
2106	0.00428182
2118	0.00184897
2130	0.000875826
2142	0.00175165
2154	0.000875826
2166	0.00184897
2178	0.00223822
2190	0.00165434
2202	0.00194628
2214	0.00165434
2226	0.00155702
2238	0.00272479
2250	0.00272479
2262	0.00321136
2274	0.00262748
2286	0.00291942
2298	0.00564421
2310	0.00690929
2322	0.00817438
2334	0.0090502
2346	0.00408719
2358	0.00506033
2370	0.00817438
2382	0.00797975
2394	0.00807706
2406	0.00739586
2418	0.00953677
2430	0.0131374
2442	0.0100233
2454	0.00788243
2466	0.00720124
2478	0.00496301
2490	0.00515764
2502	0.0048657
2514	0.00282211
2526	0.00301673
2538	0.00330868
2550	0.00184897
2562	0.00369793
2574	0.00428182
2586	0.00301673
2598	0.00311405
2610	0.00214091
2622	0.00145971
2634	0.00262748
2646	0.00145971
2658	0.00214091
2670	0.00243285
2682	0.00194628
2694	0.00204359
2706	0.00233554
2718	0.00155702
2730	0.00262748
2742	0.00165434
2754	0.00233554
2766	0.00447644
2778	0.00428182
2790	0.00243285
2802	0.00184897
2814	0.00126508
2826	0.00214091
2838	0.00272479
2850	0.00223822
2862	0.00467107
2874	0.00330868
2886	0.00223822
2898	0.00321136
2910	0.00243285
2922	0.00321136
2934	0.00330868
2946	0.00291942
2958	0.00340599
2970	0.00369793
2982	0.00301673
2994	0.00583884
3006	0.0105099
3018	0.0288049
3030	0.0475865
3042	0.0650058
3054	0.055469
3066	0.0460295
3078	0.0606266
3090	0.0450564
3102	0.0305566
3114	0.0152783
3126	0.00875826
3138	0.00496301
3150	0.00214091
3162	0.0035033
3174	0.00272479
3186	0.00223822
3198	0.00389256
3210	0.00155702
3222	0.00048657
3234	0.00340599
3246	0.00262748
3258	0.00321136
3270	0.00360062
3282	0.00233554
3294	0.00204359
3306	0.00272479
3318	0.00301673
3330	0.00467107
3342	0.00398987
3354	0.00330868
3366	0.0035033
3378	0.00408719
3390	0.00564421
3402	0.00360062
3414	0.00360062
3426	0.0055469
3438	0.00428182
3450	0.00476839
3462	0.00583884
3474	0.00408719
3486	0.00428182
3498	0.00340599
3510	0.00301673
3522	0.00642272
3534	0.00564421
3546	0.00272479
3558	0.00506033
3570	0.00233554
3582	0.00340599
3594	0.00583884
3606	0.00447644
3618	0.0062281
3630	0.011775
3642	0.0447644
3654	0.148793
3666	0.0742506
3678	0.00953677
3690	0.00340599
3702	0.00389256
3714	0.00204359
3726	0.00447644
3738	0.00262748
3750	0.00165434
3762	0.00301673
3774	0.00145971
3786	0.00175165
3798	0.00272479
3810	0.00398987
3822	0.00243285
3834	0.00262748
3846	0.00437913
3858	0.00535227
3870	0.00447644
3882	0.00437913
3894	0.00428182
3906	0.00496301
3918	0.00603347
3930	0.00428182
3942	0.00447644
3954	0
3966	0.000389256
