Infrared Spectrum: 1-Propanone, 1-(2,4-dimethoxyphenyl)-
Formula: C 11 H 14 O 3
CAS: 831-00-5
Origin: Sadtler Research Labs Under US-EPA Contract
1/CM	ABSORBANCE
450	0.0104687
462	0.0074905
474	0.00379037
486	0.00297815
498	0.00568556
510	0.0111004
522	0.0247277
534	0.0307742
546	0.0270741
558	0.0327597
570	0.0347451
582	0.030323
594	0.0285181
606	0.0178689
618	0.0167859
630	0.0178689
642	0.0166054
654	0.0134468
666	0.0108296
678	0.00406112
690	0.00207568
702	0.00252692
714	0.0028879
726	0.00478309
738	0.00559531
750	0.00532457
762	0.00604655
774	0.0106491
786	0.0277961
798	0.0434991
810	0.038716
822	0.0539677
834	0.0936764
846	0.0755367
858	0.029962
870	0.0122736
882	0.00803198
894	0.00929544
906	0.015342
918	0.0285181
930	0.0586606
942	0.159376
954	0.20098
966	0.0590215
978	0.0286985
990	0.0344744
1002	0.0605557
1014	0.138168
1026	0.188977
1038	0.264875
1050	0.187804
1062	0.0792369
1074	0.0694902
1086	0.0947594
1098	0.0972863
1110	0.142951
1122	0.267041
1134	0.290144
1146	0.211268
1158	0.4238
1170	0.338877
1182	0.178509
1194	0.234101
1206	0.578664
1218	0.612597
1230	0.263521
1242	0.282924
1254	0.460891
1266	0.423078
1278	0.361439
1290	0.348173
1302	0.331206
1314	0.243847
1326	0.158654
1338	0.12409
1350	0.130226
1362	0.0778832
1374	0.0597435
1386	0.066512
1398	0.102882
1410	0.186089
1422	0.172823
1434	0.1314
1446	0.174718
1458	0.213344
1470	0.310359
1482	0.200078
1494	0.250165
1506	0.17914
1518	0.0615485
1530	0.0419649
1542	0.053336
1554	0.0832077
1566	0.185728
1578	0.344292
1590	0.439774
1602	0.82576
1614	0.666835
1626	0.199265
1638	0.0844712
1650	0.067595
1662	0.0748148
1674	0.121924
1686	0.331477
1698	0.473255
1710	0.23004
1722	0.106221
1734	0.0530652
1746	0.0298718
1758	0.0171469
1770	0.0119126
1782	0.00703927
1794	0.00604655
1806	0.00388062
1818	0.00207568
1830	0.00360988
1842	0.00315865
1854	0.00297815
1866	0.00505383
1878	0.00550507
1890	0.00559531
1902	0.00487334
1914	0.00451235
1926	0.00469284
1938	0.00487334
1950	0.00424161
1962	0.00360988
1974	0.00243667
1986	0.00171469
1998	0.00162445
2010	0.00207568
2022	0.00243667
2034	0.00333914
2046	0.00379037
2058	0.00505383
2070	0.00676853
2082	0.00604655
2094	0.00388062
2106	0.00225618
2118	0.00198543
2130	0.00243667
2142	0.00171469
2154	0.00171469
2166	0.00216593
2178	0.00261716
2190	0.00351963
2202	0.00487334
2214	0.00370013
2226	0.00144395
2238	0.000812223
2250	0.000360988
2262	0.000180494
2274	0.000360988
2286	0.00135371
2298	0.00324889
2310	0.00406112
2322	0.00451235
2334	0.0046026
2346	0.00451235
2358	0.00379037
2370	0.00487334
2382	0.00433186
2394	0.00207568
2406	0.00243667
2418	0.00261716
2430	0.00270741
2442	0.0028879
2454	0.00297815
2466	0.0028879
2478	0.00261716
2490	0.00261716
2502	0.00261716
2514	0.00243667
2526	0.00261716
2538	0.00216593
2550	0.00216593
2562	0.0028879
2574	0.00451235
2586	0.00577581
2598	0.00631729
2610	0.00469284
2622	0.00333914
2634	0.0028879
2646	0.00225618
2658	0.00207568
2670	0.00234642
2682	0.00225618
2694	0.00297815
2706	0.00360988
2718	0.00370013
2730	0.00433186
2742	0.00523433
2754	0.00541482
2766	0.00631729
2778	0.00785149
2790	0.0103784
2802	0.0144395
2814	0.0212983
2826	0.0362793
2838	0.0841102
2850	0.128782
2862	0.0774319
2874	0.0697609
2886	0.0945789
2898	0.106852
2910	0.114794
2922	0.141688
2934	0.161632
2946	0.295198
2958	0.265416
2970	0.20107
2982	0.177787
2994	0.149269
3006	0.187263
3018	0.135371
3030	0.0467479
3042	0.0314962
3054	0.0249082
3066	0.0218398
3078	0.0273448
3090	0.0364598
3102	0.0275253
3114	0.015703
3126	0.0121833
3138	0.00983692
3150	0.00839297
3162	0.00658803
3174	0.00496359
3186	0.0044221
3198	0.00297815
3210	0.00234642
3222	0.0015342
3234	0.00126346
3246	0.00117321
3258	0.00135371
3270	0.00117321
3282	0.00108296
3294	0.000992717
3306	0.00171469
3318	0.00162445
3330	0.00225618
3342	0.00351963
3354	0.0046026
3366	0.00676853
3378	0.00568556
3390	0.00379037
3402	0.00370013
3414	0.00297815
3426	0.00234642
3438	0.00234642
3450	0.00207568
3462	0.00198543
3474	0.00225618
3486	0.00198543
3498	0.00189519
3510	0.0015342
3522	0.00144395
3534	0.00243667
3546	0.000631729
3558	0.00090247
3570	0
3582	0.00180494
3594	0.00171469
3606	0.00144395
3618	0.0015342
3630	0.000631729
3642	0.00171469
3654	0.00216593
3666	0.00135371
3678	0.00216593
3690	0.00261716
3702	0.00090247
3714	0.00180494
3726	0.000631729
3738	0.00090247
3750	0.00360988
3762	0.00270741
3774	0.00198543
3786	0.00171469
3798	0.00207568
3810	0.00234642
3822	0.00216593
3834	0.0028879
3846	0.00162445
3858	0.00252692
3870	0.00162445
3882	0.00162445
3894	0.00324889
3906	0.00279766
3918	0
3930	0.00108296
3942	0.00090247
3954	0.00144395
3966	0.000541482
