Infrared Spectrum: 2,4,6-Trimethoxyacetophenone
Formula: C 11 H 14 O 4
CAS: 832-58-6
Origin: Sadtler Research Labs Under US-EPA Contract
1/CM	ABSORBANCE
450	0.00875067
462	0
474	0.0147805
486	0.00867713
498	0.0175749
510	0.0150011
522	0.0234577
534	0.0347821
546	0.049342
558	0.0650785
570	0.0392677
582	0.0241195
594	0.0101478
606	0.0157365
618	0.0145599
630	0.0241195
642	0.0211045
654	0.0172807
666	0.015663
678	0.013751
690	0.0175013
702	0.0123539
714	0.0160306
726	0.00779471
738	0.0150011
750	0.0187514
762	0.0225017
774	0.0148541
786	0.0236783
798	0.0367675
810	0.0502244
822	0.074638
834	0.0592692
846	0.0355174
858	0.0202221
870	0.018825
882	0.00853006
894	0.0166924
906	0.0130157
918	0.0209575
930	0.0289728
942	0.052504
954	0.0695641
966	0.0825063
978	0.0575779
990	0.0480184
1002	0.0615488
1014	0.077653
1026	0.0980222
1038	0.139275
1050	0.13251
1062	0.0734615
1074	0.0922129
1086	0.119347
1098	0.192956
1110	0.341276
1122	0.541071
1134	0.558204
1146	0.64174
1158	0.580632
1170	0.19325
1182	0.137143
1194	0.2284
1206	0.463932
1218	0.470771
1230	0.383853
1242	0.364439
1254	0.166777
1266	0.0799325
1278	0.0563278
1290	0.0478713
1302	0.0350762
1314	0.0400766
1326	0.080815
1338	0.123465
1350	0.158174
1362	0.125451
1374	0.0547836
1386	0.0726526
1398	0.160306
1410	0.317818
1422	0.214796
1434	0.142364
1446	0.144202
1458	0.221929
1470	0.259064
1482	0.138981
1494	0.0848594
1506	0.0490478
1518	0.0460329
1530	0.0492685
1542	0.0557395
1554	0.088242
1566	0.178837
1578	0.404884
1590	0.596957
1602	0.687185
1614	0.554454
1626	0.210678
1638	0.0907422
1650	0.060887
1662	0.0522834
1674	0.0595634
1686	0.0606664
1698	0.0901539
1710	0.247519
1722	0.360101
1734	0.142584
1746	0.0558131
1758	0.0361057
1770	0.0202957
1782	0.0181631
1794	0.0133098
1806	0.0122068
1818	0.00816239
1830	0.00595634
1842	0.00514745
1854	0.00470624
1866	0.00411796
1878	0.00426503
1890	0.00470624
1902	0.00492685
1914	0.00647108
1926	0.00558866
1938	0.00757411
1950	0.00779471
1962	0.00875067
1974	0.00573573
1986	0.00492685
1998	0.00345615
2010	0.00426503
2022	0.00470624
2034	0.00463271
2046	0.0058828
2058	0.00551513
2070	0.00838299
2082	0.00794178
2094	0.00823592
2106	0.00639755
2118	0.00632401
2130	0.00683876
2142	0.00786825
2154	0.00786825
2166	0.00727997
2178	0.00676522
2190	0.00514745
2202	0.00455917
2214	0.00264726
2226	0.00345615
2238	0.00352968
2250	0.00654462
2262	0.0058828
2274	0.00544159
2286	0.00397089
2298	0.0029414
2310	0.00323554
2322	0.00161777
2334	0.00338261
2346	0.00176484
2358	0.00470624
2370	0.00250019
2382	0.00411796
2394	0.00169131
2406	0.00264726
2418	0.00242666
2430	0.00198545
2442	0.00169131
2454	0.000955955
2466	0.00139717
2478	0.00132363
2490	0.00235312
2502	0.000808885
2514	0.00227959
2526	0.00220605
2538	0.00397089
2550	0.00279433
2562	0.00205898
2574	0.00110303
2586	0.00073535
2598	0.00183838
2610	0.0014707
2622	0.00191191
2634	0
2646	0.00161777
2658	0.00073535
2670	0.00220605
2682	0.0014707
2694	0.00250019
2706	0.00183838
2718	0.00227959
2730	0.00286787
2742	0.00308847
2754	0.00477977
2766	0.00500038
2778	0.00683876
2790	0.00742704
2802	0.0116921
2814	0.0160306
2826	0.0309582
2838	0.0805944
2850	0.123759
2862	0.071329
2874	0.0625783
2886	0.0643431
2898	0.0650785
2910	0.0789031
2922	0.0978016
2934	0.120744
2946	0.217884
2958	0.189941
2970	0.130966
2982	0.0778
2994	0.0808885
3006	0.166851
3018	0.121186
3030	0.0375764
3042	0.0238989
3054	0.017869
3066	0.0169866
3078	0.0152217
3090	0.0165454
3102	0.0155159
3114	0.0133834
3126	0.00801532
3138	0.0071329
3150	0.00573573
3162	0.00470624
3174	0.00426503
3186	0.00411796
3198	0.00426503
3210	0.00220605
3222	0.00264726
3234	0.00110303
3246	0.00198545
3258	0.00117656
3270	0.0027208
3282	0.000808885
3294	0.00250019
3306	0.00183838
3318	0.00176484
3330	0.00286787
3342	0.00198545
3354	0.00323554
3366	0.00154424
3378	0.00389736
3390	0.00191191
3402	0.00507392
3414	0.00654462
3426	0.00727997
3438	0.00389736
3450	0.00308847
3462	0.00367675
3474	0.00316201
3486	0.00389736
3498	0.00110303
3510	0.00360322
3522	0.00198545
3534	0.00330908
3546	0.00102949
3558	0.00389736
3570	0.00088242
3582	0.00360322
3594	0.00308847
3606	0.00264726
3618	0.00308847
3630	0
3642	0.00433857
3654	0.00213252
3666	0.00514745
3678	0.00183838
3690	0.00389736
3702	0.00455917
3714	0.00485331
3726	0.00551513
3738	0.00411796
3750	0.00573573
3762	0.00617694
3774	0.00830946
3786	0.00727997
3798	0.00808885
3810	0.00705936
3822	0.00772118
3834	0.00720643
3846	0.00801532
3858	0.00757411
3870	0.00772118
3882	0.0088242
3894	0.00816239
3906	0.00948602
3918	0.00867713
3930	0.0102949
3942	0.00786825
3954	0.00242666
3966	0.00323554
