Infrared Spectrum: Phenanthrene, 3-methyl-
Formula: C 15 H 12
CAS: 832-71-3
Origin: Sadtler Research Labs Under US-EPA Contract
1/CM	ABSORBANCE
450	0.00381518
462	0.0194527
474	0.019594
486	0.00423909
498	0.0401772
510	0.0404598
522	0.0174745
534	0.0154491
546	0.0367388
558	0.013989
570	0.0092318
582	0.00979701
594	0.0348547
606	0.0123876
618	0.026565
630	0.0584994
642	0.0138948
654	0.00626443
666	0.00871369
678	0.0110216
690	0.0170977
702	0.0207715
714	0.000141303
726	0.0726297
738	0.298809
750	0.129151
762	0.0186991
774	0.0153078
786	0.0398003
798	0.0392822
810	0.0370214
822	0.198201
834	0.403326
846	0.0766333
858	0.044322
870	0.055014
882	0.0495503
894	0.0209599
906	0.010739
918	0.0115868
930	0.0105506
942	0.021007
954	0.0203947
966	0.0145542
978	0.0117281
990	0.0171919
1002	0.016344
1014	0.0137535
1026	0.0177571
1038	0.0501626
1050	0.0218549
1062	0.0106448
1074	0.00706515
1086	0.0137064
1098	0.0168622
1110	0.00880789
1122	0.00890209
1134	0.0127644
1146	0.0301917
1158	0.0283548
1170	0.0146484
1182	0.0227969
1194	0.0317461
1206	0.0151194
1218	0.015873
1230	0.0190759
1242	0.0320287
1254	0.0178513
1266	0.0100325
1278	0.0137064
1290	0.0172861
1302	0.0148839
1314	0.00894919
1326	0.0138477
1338	0.0143658
1350	0.0172861
1362	0.0156846
1374	0.0182281
1386	0.020065
1398	0.0202534
1410	0.0238331
1422	0.0296736
1434	0.0339127
1446	0.0617023
1458	0.0986766
1470	0.0389525
1482	0.0249635
1494	0.0294852
1506	0.0914701
1518	0.0767275
1530	0.0419199
1542	0.0251048
1554	0.0183223
1566	0.0199237
1578	0.0194056
1590	0.020065
1602	0.059206
1614	0.0746551
1626	0.0585465
1638	0.0287316
1650	0.0207715
1662	0.0193585
1674	0.0161556
1686	0.0179455
1698	0.016344
1710	0.0116339
1722	0.0164853
1734	0.019594
1746	0.0222788
1758	0.0152607
1770	0.0178042
1782	0.0175687
1794	0.0138948
1806	0.0170035
1818	0.0154962
1830	0.0165325
1842	0.00697095
1854	0.00518111
1866	0.00664124
1878	0.0102209
1890	0.0213368
1902	0.0251519
1914	0.0252932
1926	0.0145071
1938	0.0187462
1950	0.00984411
1962	0.00499271
1974	0.00405069
1986	0.00334417
1998	0.00409779
2010	0.00433329
2022	0.00442749
2034	0.00409779
2046	0.00367388
2058	0.00433329
2070	0.0044746
2082	0.00551082
2094	0.0045688
2106	0.00372098
2118	0.00357968
2130	0.00296736
2142	0.00357968
2154	0.00419199
2166	0.0044746
2178	0.0044746
2190	0.00527531
2202	0.00343837
2214	0.00292026
2226	0.00273186
2238	0.00292026
2250	0.00409779
2262	0.00423909
2274	0.00536951
2286	0.00880789
2298	0.0150723
2310	0.0207244
2322	0.0153549
2334	0.0147426
2346	0.0209128
2358	0.015402
2370	0.0148839
2382	0.0129528
2394	0.00428619
2406	0.00367388
2418	0.00433329
2430	0.00353258
2442	0.00367388
2454	0.00348547
2466	0.00306157
2478	0.00320287
2490	0.00287316
2502	0.00211955
2514	0.00146013
2526	0.00164854
2538	0.000235505
2550	0.00155433
2562	0.00273186
2574	0.0046159
2586	0.00301446
2598	0.00386228
2610	0.00282606
2622	0.00329707
2634	0.00372098
2646	0.00372098
2658	0.00442749
2670	0.00372098
2682	0.00301446
2694	0.00301446
2706	0.00376808
2718	0.0044746
2730	0.00494561
2742	0.00885499
2754	0.00664124
2766	0.00320287
2778	0.00433329
2790	0.00560502
2802	0.00522821
2814	0.00664124
2826	0.00819557
2838	0.0108332
2850	0.0182752
2862	0.0349018
2874	0.0588291
2886	0.0502568
2898	0.0459235
2910	0.0560973
2922	0.0863832
2934	0.137205
2946	0.0770572
2958	0.0556263
2970	0.0458293
2982	0.0426735
2994	0.0404598
3006	0.066695
3018	0.137064
3030	0.15939
3042	0.174886
3054	0.281617
3066	0.281476
3078	0.210165
3090	0.121992
3102	0.0411663
3114	0.0248222
3126	0.0187933
3138	0.0132354
3150	0.00781877
3162	0.0045217
3174	0.00414489
3186	0.00513401
3198	0.00433329
3210	0.00522821
3222	0.00748906
3234	0.00673544
3246	0.00621733
3258	0.00584052
3270	0.00569922
3282	0.00414489
3294	0.00560502
3306	0.00574632
3318	0.00551082
3330	0.00579342
3342	0.004663
3354	0.00546372
3366	0.00621733
3378	0.00390938
3390	0.00532241
3402	0.00560502
3414	0.00348547
3426	0.00423909
3438	0.00503981
3450	0.00221375
3462	0.00282606
3474	0.00310867
3486	0.00292026
3498	0.00296736
3510	0.00353258
3522	0.00230795
3534	0.00244925
3546	0.00211955
3558	0.00249635
3570	0.00334417
3582	0.00428619
3594	0.00310867
3606	0.00230795
3618	0.00216665
3630	0.00287316
3642	0.00287316
3654	0.00362678
3666	0.00400359
3678	0.00235505
3690	0.00259056
3702	0.00621733
3714	0.00428619
3726	0.00334417
3738	0.00405069
3750	0.00518111
3762	0.00503981
3774	0.00287316
3786	0.00343837
3798	0.00725355
3810	0.00791297
3822	0.000847818
3834	0.000847818
3846	0.00555792
3858	0.00273186
3870	0.000141303
3882	0.00419199
3894	0.00183694
3906	0.00343837
3918	0.000188404
3930	0.00659414
3942	0.0120108
3954	0.0114455
3966	0.0046159
