Infrared Spectrum: o-Terphenyl
Formula: C 18 H 14
CAS: 84-15-1
Origin: Sadtler Research Labs Under US-EPA Contract
1/CM	ABSORBANCE
450	0.0101967
462	0.0234168
474	0.0179627
486	0.018022
498	0.0288708
510	0.0524655
522	0.0485528
534	0.0217569
546	0.0304122
558	0.105346
570	0.0257881
582	0.00812177
594	0.0138722
606	0.018852
618	0.0488492
630	0.0158286
642	0.00687683
654	0.018022
666	0.0413795
678	0.0457072
690	0.173343
702	0.561114
714	0.0880945
726	0.0550146
738	0.207076
750	0.509656
762	0.190536
774	0.140738
786	0.0234168
798	0.0107302
810	0.00545404
822	0.009426
834	0.0106117
846	0.0103745
858	0.0107302
870	0.018852
882	0.00865532
894	0.00646185
906	0.0331985
918	0.0206898
930	0.00794392
942	0.0104931
954	0.00788464
966	0.00658041
978	0.0101967
990	0.0174292
1002	0.0567931
1014	0.0912365
1026	0.00841819
1038	0.00806249
1050	0.00936671
1062	0.0326649
1074	0.0388304
1086	0.00355698
1098	0.000652113
1110	0.00533547
1122	0.00361626
1134	0.00154136
1146	0.0024306
1158	0.00480192
1170	0.0055726
1182	0.0127458
1194	0.00403124
1206	0.00391268
1218	0.00438694
1230	0.00640256
1242	0.00723253
1254	0.00533547
1266	0.00580973
1278	0.00960385
1290	0.0106117
1302	0.00918887
1314	0.00622472
1326	0.0110266
1338	0.00598758
1350	0.0052169
1362	0.00586902
1374	0.00883317
1386	0.0090703
1398	0.0101967
1410	0.0129237
1422	0.0327835
1434	0.0798542
1446	0.0630178
1458	0.0512798
1470	0.166585
1482	0.0998919
1494	0.059283
1506	0.0256103
1518	0.0135758
1530	0.0110859
1542	0.0123901
1554	0.00640256
1566	0.0105524
1578	0.0281594
1590	0.055311
1602	0.0657448
1614	0.0258474
1626	0.0125087
1638	0.00895173
1650	0.00889245
1662	0.00948528
1674	0.0103152
1686	0.011738
1698	0.00948528
1710	0.00877388
1722	0.00853675
1734	0.00978169
1746	0.0167771
1758	0.00829962
1770	0.00610615
1782	0.00924815
1794	0.022824
1806	0.0220533
1818	0.0179035
1830	0.00723253
1842	0.0103152
1854	0.00776607
1866	0.0156507
1878	0.0198005
1890	0.0218754
1902	0.00794392
1914	0.0168364
1926	0.0168957
1938	0.0290487
1950	0.0319535
1962	0.0140501
1974	0.00320128
1986	0.00355698
1998	0.00231204
2010	0.00201562
2022	0.00195634
2034	0.00183777
2046	0.00225275
2058	0.00207491
2070	0.00148208
2082	0.00148208
2094	0.00142279
2106	0.000889245
2118	0.000652113
2130	0.00112638
2142	0.00112638
2154	0.00124494
2166	0.00148208
2178	0.00177849
2190	0.00160064
2202	0.00124494
2214	0.00154136
2226	0.00213419
2238	0.00177849
2250	0.00254917
2262	0.00237132
2274	0.00266774
2286	0.00320128
2298	0.00290487
2310	0.0055726
2322	0.00687683
2334	0.00622472
2346	0.00343841
2358	0.0034977
2370	0.00195634
2382	0.00171921
2394	0.00195634
2406	0.00201562
2418	0.00165992
2430	0.00165992
2442	0.00148208
2454	0.00100781
2466	0.00106709
2478	0.000948528
2490	0.00112638
2502	0.00106709
2514	0.00106709
2526	0.00100781
2538	0.00118566
2550	0.00100781
2562	0.00136351
2574	0.00171921
2586	0.0024306
2598	0.0027863
2610	0.00302343
2622	0.0024306
2634	0.00148208
2646	0.000829962
2658	0.000652113
2670	0.00059283
2682	0.000711396
2694	0.000652113
2706	0.00059283
2718	0.00059283
2730	0.000414981
2742	0.000237132
2754	0.000889245
2766	0.00124494
2778	0.00106709
2790	0.00183777
2802	0.00183777
2814	0.00201562
2826	0.00260845
2838	0.00331985
2850	0.00456479
2862	0.00746966
2874	0.00966313
2886	0.00883317
2898	0.00640256
2910	0.00616543
2922	0.00859604
2934	0.0128644
2946	0.00865532
2958	0.00563189
2970	0.00711396
2982	0.00954456
2994	0.012153
3006	0.0267366
3018	0.0949714
3030	0.201621
3042	0.149215
3054	0.171328
3066	0.422036
3078	0.295229
3090	0.165518
3102	0.0713767
3114	0.0426245
3126	0.0234761
3138	0.0166585
3150	0.0116788
3162	0.00569117
3174	0.00290487
3186	0.00213419
3198	0.00165992
3210	0.00160064
3222	0.000889245
3234	0.000829962
3246	0.000474264
3258	0.000533547
3270	0.00100781
3282	0.00112638
3294	0.00148208
3306	0.00106709
3318	0.00100781
3330	0.00148208
3342	0.000889245
3354	0.00124494
3366	0.000711396
3378	0.00148208
3390	0.000770679
3402	0.00177849
3414	0.000829962
3426	0.00160064
3438	0.00171921
3450	0.000948528
3462	0.000237132
3474	0.000770679
3486	0.00124494
3498	0.000533547
3510	0.000533547
3522	0.00118566
3534	0.000948528
3546	0.00136351
3558	0.00124494
3570	0.00124494
3582	0.000948528
3594	0.00225275
3606	0.00148208
3618	0.00189706
3630	0.0027863
3642	0.00373483
3654	0.00379411
3666	0.00272702
3678	0.00598758
3690	0.00391268
3702	0.00331985
3714	0.00343841
3726	0.00195634
3738	0.00219347
3750	0.000829962
3762	0.00201562
3774	0.00195634
3786	0.00219347
3798	0.00189706
3810	0.00136351
3822	0.00284558
3834	0.00331985
3846	0.00189706
3858	0.000177849
3870	0.00308272
3882	0.00207491
3894	0.00142279
3906	0.00142279
3918	0.0024306
3930	0.00195634
3942	0.00136351
3954	0.00213419
3966	0.00142279
