Infrared Spectrum: 9,10-Anthracenedione, 2-methyl-
Formula: C 15 H 10 O 2
CAS: 84-54-8
Origin: Sadtler Research Labs Under US-EPA Contract
1/CM	ABSORBANCE
450	0.0156112
462	0.0147105
474	0.00906649
486	0.00840602
498	0.00810581
510	0.011108
522	0.0158514
534	0.0124289
546	0.00906649
558	0.0106276
570	0.0129092
582	0.0174725
594	0.00972697
606	0.0109879
618	0.00960688
630	0.0135697
642	0.0315826
654	0.0169321
666	0.0135697
678	0.00864619
690	0.0132095
702	0.0741531
714	0.175686
726	0.0309822
738	0.0114082
750	0.011168
762	0.0101473
774	0.0118285
786	0.0180129
798	0.0108077
810	0.0141701
822	0.0166319
834	0.0389079
846	0.0562603
858	0.0160915
870	0.0109278
882	0.0100272
894	0.0135697
906	0.0210751
918	0.0470737
930	0.137739
942	0.030742
954	0.026539
966	0.0692896
978	0.0299014
990	0.0189135
1002	0.0174725
1014	0.0130293
1026	0.00840602
1038	0.00912654
1050	0.0108077
1062	0.00864619
1074	0.00816585
1086	0.00834598
1098	0.0107477
1110	0.0124289
1122	0.011168
1134	0.0156112
1146	0.0312224
1158	0.0423904
1170	0.0203546
1182	0.0149507
1194	0.0117084
1206	0.0252181
1218	0.0280401
1230	0.0210151
1242	0.0359057
1254	0.078236
1266	0.103694
1278	0.161876
1290	0.428827
1302	0.426485
1314	0.560141
1326	0.241073
1338	0.047494
1350	0.0204146
1362	0.0175326
1374	0.0219157
1386	0.0250379
1398	0.0203546
1410	0.0217356
1422	0.0205947
1434	0.012609
1446	0.0107477
1458	0.00900645
1470	0.0150708
1482	0.0196941
1494	0.01393
1506	0.0106276
1518	0.011168
1530	0.00870623
1542	0.00810581
1554	0.015371
1566	0.0243775
1578	0.0360258
1590	0.0955885
1602	0.150708
1614	0.0954083
1626	0.0288206
1638	0.018133
1650	0.0248578
1662	0.0302617
1674	0.104235
1686	0.415137
1698	0.220058
1710	0.0394483
1722	0.025098
1734	0.0238371
1746	0.0141701
1758	0.00954684
1770	0.00840602
1782	0.0068449
1794	0.0068449
1806	0.00810581
1818	0.00672482
1830	0.00510366
1842	0.00492353
1854	0.00576413
1866	0.00708507
1878	0.00774555
1890	0.00654469
1902	0.00498357
1914	0.00378271
1926	0.00378271
1938	0.00690495
1950	0.00912654
1962	0.00852611
1974	0.00786563
1986	0.00666477
1998	0.00366262
2010	0.00426305
2022	0.00360258
2034	0.0039028
2046	0.00414297
2058	0.0039028
2070	0.00360258
2082	0.00312224
2094	0.00336241
2106	0.00402288
2118	0.00324232
2130	0.00324232
2142	0.00354254
2154	0.00342245
2166	0.00348249
2178	0.00336241
2190	0.00288206
2202	0.00282202
2214	0.00330237
2226	0.00300215
2238	0.00360258
2250	0.0039028
2262	0.00312224
2274	0.00324232
2286	0.00342245
2298	0.00330237
2310	0.00396284
2322	0.0039028
2334	0.00372267
2346	0.0039028
2358	0.00354254
2370	0.00324232
2382	0.00324232
2394	0.00318228
2406	0.00336241
2418	0.00306219
2430	0.00258185
2442	0.00234168
2454	0.00282202
2466	0.00264189
2478	0.00270193
2490	0.00276198
2502	0.00198142
2514	0.00228163
2526	0.00228163
2538	0.00192138
2550	0.00162116
2562	0.00138099
2574	0.00180129
2586	0.00246176
2598	0.00306219
2610	0.00354254
2622	0.00306219
2634	0.00294211
2646	0.00300215
2658	0.00306219
2670	0.00294211
2682	0.00354254
2694	0.00348249
2706	0.00312224
2718	0.00270193
2730	0.00210151
2742	0.00282202
2754	0.00276198
2766	0.00216155
2778	0.00240172
2790	0.00300215
2802	0.00276198
2814	0.00294211
2826	0.00306219
2838	0.00366262
2850	0.00504361
2862	0.00888636
2874	0.0130293
2886	0.0132695
2898	0.0128492
2910	0.0131494
2922	0.0169922
2934	0.02798
2946	0.0211952
2958	0.0114682
2970	0.00930667
2982	0.00840602
2994	0.0110479
3006	0.0135097
3018	0.0144103
3030	0.0207749
3042	0.0257584
3054	0.0169922
3066	0.0312224
3078	0.0694698
3090	0.0213153
3102	0.00576413
3114	0.0043231
3126	0.00366262
3138	0.00336241
3150	0.0047434
3162	0.00438314
3174	0.00282202
3186	0.00252181
3198	0.00186133
3210	0.00156112
3222	0.00198142
3234	0.00282202
3246	0.00210151
3258	0.00210151
3270	0.00330237
3282	0.00282202
3294	0.00276198
3306	0.00276198
3318	0.00252181
3330	0.00276198
3342	0.00606434
3354	0.00984705
3366	0.0068449
3378	0.00174125
3390	0.00276198
3402	0.00288206
3414	0.00228163
3426	0.00204146
3438	0.00252181
3450	0.00144103
3462	0.00234168
3474	0.00204146
3486	0.00258185
3498	0.00240172
3510	0.00216155
3522	0.00192138
3534	0.00306219
3546	0.00234168
3558	0.00180129
3570	0.00198142
3582	0.00138099
3594	0.00216155
3606	0.00258185
3618	0.00162116
3630	0.00318228
3642	0.00270193
3654	0.0012609
3666	0.00198142
3678	0.00252181
3690	0.00228163
3702	0.00276198
3714	0.00216155
3726	0.00174125
3738	0.00300215
3750	0.00174125
3762	0.00246176
3774	0.00312224
3786	0.00180129
3798	0.00276198
3810	0.00300215
3822	0.00180129
3834	0.00144103
3846	0.00210151
3858	0.0012609
3870	0.00324232
3882	0.00282202
3894	0.00270193
3906	0.00276198
3918	0.00162116
3930	0.00276198
3942	0.00342245
3954	0.00210151
3966	0.00198142
