Infrared Spectrum: Diethyl Phthalate
Formula: C 12 H 14 O 4
CAS: 84-66-2
Origin: Sadtler Research Labs Under US-EPA Contract
1/CM	ABSORBANCE
450	0.00485141
462	0.00530062
474	0.00539046
486	0.0015273
498	0.00431237
510	0.00431237
522	0.00089841
534	0.00736696
546	0.00772633
558	0.0110504
570	0.00440221
582	0.00619903
594	0.00305459
606	0.00260539
618	0.0035038
630	0.00368348
642	0.0074568
654	0.0150933
666	0.00431237
678	0.0100622
690	0.0300967
702	0.0398894
714	0.0407878
726	0.061002
738	0.108169
750	0.0894816
762	0.0479751
774	0.0390808
786	0.0337802
798	0.019226
810	0.0121285
822	0.0104216
834	0.0169799
846	0.0272218
858	0.0306358
870	0.0261437
882	0.0140152
894	0.00844505
906	0.00565998
918	0.00557014
930	0.00574982
942	0.00718728
954	0.0106911
966	0.00934346
978	0.0128473
990	0.0162612
1002	0.0317139
1014	0.0548929
1026	0.0477954
1038	0.104216
1050	0.11311
1062	0.207982
1074	0.332142
1086	0.145632
1098	0.144554
1110	0.302764
1122	0.530421
1134	0.385059
1146	0.172046
1158	0.085888
1170	0.0832826
1182	0.0771734
1194	0.0394402
1206	0.0405183
1218	0.0619004
1230	0.118321
1242	0.264851
1254	0.484513
1266	0.790152
1278	0.880082
1290	0.57049
1302	0.24859
1314	0.114817
1326	0.0567795
1338	0.0341396
1350	0.0323428
1362	0.0704353
1374	0.0934346
1386	0.0386316
1398	0.0353075
1410	0.0292882
1422	0.0246164
1434	0.0287491
1446	0.0439322
1458	0.0422253
1470	0.0512992
1482	0.0466275
1494	0.0287491
1506	0.0139254
1518	0.00979267
1530	0.00961299
1542	0.00808569
1554	0.0106012
1566	0.0162612
1578	0.0322529
1590	0.0243469
1602	0.0273117
1614	0.0164409
1626	0.0112301
1638	0.0106012
1650	0.0089841
1662	0.0133863
1674	0.015273
1686	0.0223704
1698	0.0347685
1710	0.0596544
1722	0.120746
1734	0.351548
1746	0.817104
1758	0.508949
1770	0.148507
1782	0.0476157
1794	0.0244368
1806	0.0194955
1818	0.0166206
1830	0.0133863
1842	0.0110504
1854	0.00979267
1866	0.00736696
1878	0.00709744
1890	0.0050311
1902	0.00574982
1914	0.00574982
1926	0.00763648
1938	0.00970283
1950	0.00583966
1962	0.00772633
1974	0.00619903
1986	0.00476157
1998	0.00431237
2010	0.00341396
2022	0.00260539
2034	0.00233587
2046	0.00179682
2058	0.00242571
2070	0.00233587
2082	0.00269523
2094	0.00377332
2106	0.00404284
2118	0.00422253
2130	0.00485141
2142	0.00422253
2154	0.00314443
2166	0.00242571
2178	0.00233587
2190	0.00125777
2202	0.00134761
2214	0.00125777
2226	0.00125777
2238	0.00179682
2250	0.00233587
2262	0.00242571
2274	0.00170698
2286	0.00224603
2298	0.00251555
2310	0.00323428
2322	0.00431237
2334	0.00377332
2346	0.00251555
2358	0.00305459
2370	0.00188666
2382	0.00260539
2394	0.00233587
2406	0.00287491
2418	0.00179682
2430	0.00134761
2442	0.00089841
2454	0.00089841
2466	0.000359364
2478	0.00089841
2490	0.000269523
2502	0.000449205
2514	0
2526	0
2538	0
2550	0.000449205
2562	0.000539046
2574	0.00107809
2586	0.00089841
2598	0.000808569
2610	0.00116793
2622	0.00161714
2634	0.000628887
2646	0.00089841
2658	0.00116793
2670	0.000269523
2682	0.000359364
2694	0.000359364
2706	0.000269523
2718	0.000359364
2730	0.00179682
2742	0.00242571
2754	0.00278507
2766	0.00341396
2778	0.00386316
2790	0.003953
2802	0.00341396
2814	0.00440221
2826	0.00601935
2838	0.0070076
2850	0.00853489
2862	0.0117692
2874	0.019226
2886	0.0309053
2898	0.031085
2910	0.0389012
2922	0.0390808
2934	0.0516586
2946	0.0857083
2958	0.0654042
2970	0.080228
2982	0.138265
2994	0.13548
3006	0.0754664
3018	0.0396199
3030	0.0247961
3042	0.0193158
3054	0.0161714
3066	0.0256047
3078	0.0515687
3090	0.0242571
3102	0.0100622
3114	0.0070076
3126	0.00404284
3138	0.00386316
3150	0.00458189
3162	0.00476157
3174	0.00332412
3186	0.00296475
3198	0.00233587
3210	0.00287491
3222	0.00188666
3234	0.0019765
3246	0.00224603
3258	0.00206634
3270	0.00116793
3282	0.00161714
3294	0.00215618
3306	0.0019765
3318	0.00161714
3330	0.00278507
3342	0.0019765
3354	0.00242571
3366	0.00179682
3378	0.00188666
3390	0.00179682
3402	0.00215618
3414	0.00260539
3426	0.0015273
3438	0.00251555
3450	0.00296475
3462	0.00530062
3474	0.00655839
3486	0.0054803
3498	0.0035038
3510	0.00215618
3522	0.00161714
3534	0.00116793
3546	0.00161714
3558	0.00116793
3570	0.00116793
3582	0.00125777
3594	0.00143746
3606	0.00143746
3618	0.00089841
3630	0.00116793
3642	0.0015273
3654	0.000988251
3666	0.000539046
3678	0.000988251
3690	0.00107809
3702	0.00107809
3714	0.000449205
3726	0.00107809
3738	0.00107809
3750	0.000449205
3762	0.000359364
3774	0.000539046
3786	0.000808569
3798	0.000628887
3810	0.000628887
3822	8.9841e-05
3834	0.000988251
3846	0.00161714
3858	0.00134761
3870	0.00125777
3882	0.00188666
3894	0.00206634
3906	0.00143746
3918	0.00161714
3930	0.00170698
3942	0.00224603
3954	0.00215618
3966	0.00143746
