Infrared Spectrum: 1,2-Benzenedicarboxylic acid, dicyclohexyl ester
Formula: C 20 H 26 O 4
CAS: 84-61-7
Origin: Sadtler Research Labs Under US-EPA Contract
1/CM	ABSORBANCE
450	0.0188822
462	0.0218687
474	0.0197493
486	0.0152214
498	0.00616563
510	0.012813
522	0.0192676
534	0.0215797
546	0.021676
558	0.0183042
570	0.00394986
582	0.0274563
594	0.0402693
606	0.0245662
618	0.0238918
630	0.0271673
642	0.0359341
654	0.06156
666	0.0340073
678	0.0375718
690	0.0725425
702	0.117629
714	0.0986501
726	0.0988428
738	0.218398
750	0.171
762	0.102215
774	0.0911357
786	0.0767814
798	0.0477836
810	0.0676293
822	0.0774558
834	0.113775
846	0.0610783
858	0.0657989
870	0.0540456
882	0.0807312
894	0.127552
906	0.155201
918	0.223697
930	0.171385
942	0.160788
954	0.0774558
966	0.0540456
978	0.0552017
990	0.0759143
1002	0.180826
1014	0.251442
1026	0.163678
1038	0.280151
1050	0.171289
1062	0.418396
1074	0.47986
1086	0.166472
1098	0.189015
1110	0.427163
1122	0.707603
1134	0.504137
1146	0.228899
1158	0.171193
1170	0.0974941
1182	0.0788045
1194	0.0976867
1206	0.0996135
1218	0.141713
1230	0.261654
1242	0.532942
1254	0.830337
1266	0.94681
1278	0.90076
1290	0.825039
1302	0.398069
1314	0.298551
1326	0.236702
1338	0.178514
1350	0.137763
1362	0.0982648
1374	0.0874749
1386	0.0591515
1398	0.0431594
1410	0.0459532
1422	0.054142
1434	0.0890163
1446	0.203755
1458	0.176202
1470	0.089787
1482	0.0710011
1494	0.0528896
1506	0.0304428
1518	0.0281307
1530	0.0253369
1542	0.0130056
1554	0.0258186
1566	0.0380535
1578	0.0862225
1590	0.0602113
1602	0.0696524
1614	0.0342963
1626	0.0289014
1638	0.0248552
1650	0.0290941
1662	0.04104
1674	0.0606929
1686	0.0876676
1698	0.153274
1710	0.344986
1722	0.631303
1734	0.776003
1746	0.646235
1758	0.214448
1770	0.0979757
1782	0.0715791
1794	0.0753363
1806	0.0847774
1818	0.0591515
1830	0.0299611
1842	0.0248552
1854	0.0228321
1866	0.0290941
1878	0.0243735
1890	0.0152214
1902	0.0135837
1914	0.0120422
1926	0.014547
1938	0.0187859
1950	0.0160884
1962	0.0161848
1974	0.013969
1986	0.0112715
1998	0.00780338
2010	0.00674366
2022	0.00732169
2034	0.00674366
2046	0.00684
2058	0.00616563
2070	0.00674366
2082	0.00809239
2094	0.00867042
2106	0.00924845
2118	0.00895943
2130	0.00867042
2142	0.00915211
2154	0.00924845
2166	0.0105008
2178	0.0106935
2190	0.00857408
2202	0.00828507
2214	0.00809239
2226	0.00741803
2238	0.00770704
2250	0.00770704
2262	0.00606929
2274	0.00770704
2286	0.0106935
2298	0.0151251
2310	0.0176299
2322	0.00867042
2334	0.00183042
2346	0.00260113
2358	0.00183042
2370	0.00298648
2382	0.0147397
2394	0.0088631
2406	0.00712901
2418	0.0055876
2430	0.00433521
2442	0.00317915
2454	0.0027938
2466	0.00183042
2478	0.00462422
2490	0.00452789
2502	0.00394986
2514	0.00529859
2526	0.00616563
2538	0.00491324
2550	0.00616563
2562	0.00635831
2574	0.00876676
2586	0.00915211
2598	0.00876676
2610	0.00915211
2622	0.00934479
2634	0.0102118
2646	0.013391
2658	0.019942
2670	0.0189786
2682	0.013969
2694	0.0150287
2706	0.0125239
2718	0.0122349
2730	0.0115606
2742	0.0113679
2754	0.0130056
2766	0.0149324
2778	0.0192676
2790	0.0251442
2802	0.0280344
2814	0.0333329
2826	0.0440265
2838	0.0756253
2850	0.202213
2862	0.372154
2874	0.253273
2886	0.15337
2898	0.184776
2910	0.28333
2922	0.453463
2934	0.70635
2946	0.898063
2958	0.431016
2970	0.169844
2982	0.0762997
2994	0.0458569
3006	0.0331403
3018	0.0299611
3030	0.0312135
3042	0.0297684
3054	0.0328513
3066	0.0441228
3078	0.0537566
3090	0.0255296
3102	0.0179189
3114	0.0134873
3126	0.00818873
3138	0.0096338
3150	0.01368
3162	0.0140653
3174	0.0113679
3186	0.00905577
3198	0.0100192
3210	0.00741803
3222	0.00934479
3234	0.0101155
3246	0.0088631
3258	0.00915211
3270	0.00838141
3282	0.00712901
3294	0.00741803
3306	0.00674366
3318	0.00664732
3330	0.00712901
3342	0.0096338
3354	0.0102118
3366	0.00568394
3378	0.00973014
3390	0.0108862
3402	0.00838141
3414	0.0114642
3426	0.0155104
3438	0.0176299
3450	0.0112715
3462	0.0123313
3474	0.00944112
3486	0.00905577
3498	0.00847774
3510	0.00973014
3522	0.00645465
3534	0.00838141
3546	0.0105008
3558	0.00944112
3570	0.00809239
3582	0.00703267
3594	0.00934479
3606	0.00655098
3618	0.00857408
3630	0.00423887
3642	0.0115606
3654	0.00789972
3666	0.0114642
3678	0.00327549
3690	0.0076107
3702	0.0096338
3714	0.0111752
3726	0.0105972
3738	0.0126203
3750	0.00924845
3762	0.0135837
3774	0.013969
3786	0.0184969
3798	0.013391
3810	0.0163775
3822	0.0120422
3834	0.013391
3846	0.014547
3858	0.0194603
3870	0.0147397
3882	0.0193639
3894	0.0168591
3906	0.0173408
3918	0.021098
3930	0.020809
3942	0.0223504
3954	0
3966	0.00183042
