Infrared Spectrum: 1,2-Benzenedicarboxylic acid, bis(2-methylpropyl) ester
Formula: C 16 H 22 O 4
CAS: 84-69-5
Origin: Sadtler Research Labs Under US-EPA Contract
1/CM	ABSORBANCE
450	0
462	0.00973636
474	0.0194727
486	0.0160364
498	0.0175636
510	0.0173727
522	0.0171818
534	0.0223364
546	0.0231
558	0.0238636
570	0.0326454
582	0.0303545
594	0.0227182
606	0.021
618	0.0179454
630	0.0171818
642	0.0234818
654	0.0425727
666	0.0221454
678	0.0263454
690	0.0641454
702	0.1029
714	0.0853363
726	0.103282
738	0.178691
750	0.182509
762	0.100418
774	0.0805636
786	0.0798
798	0.0645272
810	0.0507818
822	0.0463909
834	0.0427636
846	0.0387545
858	0.0379909
870	0.0404727
882	0.0378
894	0.0336
906	0.0450545
918	0.0628091
930	0.0792272
942	0.0864818
954	0.0956454
966	0.118936
978	0.237682
990	0.171436
1002	0.0609
1014	0.0572727
1026	0.0859091
1038	0.227373
1050	0.198164
1062	0.523663
1074	0.759436
1086	0.199691
1098	0.219736
1110	0.592009
1122	1.11281
1134	0.781581
1146	0.329318
1158	0.163418
1170	0.126764
1182	0.105573
1194	0.0935454
1206	0.105
1218	0.146045
1230	0.2646
1242	0.606136
1254	1.11567
1266	1.61089
1278	1.38562
1290	1.13476
1302	0.620836
1314	0.297245
1326	0.145664
1338	0.125427
1350	0.117791
1362	0.106336
1374	0.246464
1386	0.189
1398	0.113973
1410	0.0654818
1422	0.0530727
1434	0.0576545
1446	0.0971727
1458	0.136309
1470	0.1932
1482	0.136309
1494	0.0790363
1506	0.0486818
1518	0.0402818
1530	0.0339818
1542	0.0295909
1554	0.0311182
1566	0.0376091
1578	0.0742636
1590	0.0574636
1602	0.0633818
1614	0.0385636
1626	0.0349363
1638	0.0313091
1650	0.0347454
1662	0.0368454
1674	0.0404727
1686	0.0536454
1698	0.0799909
1710	0.1302
1722	0.249136
1734	0.645654
1746	1.90909
1758	0.844581
1770	0.269564
1782	0.123709
1794	0.0721636
1806	0.0532636
1818	0.0408545
1830	0.0368454
1842	0.0299727
1854	0.0261545
1866	0.0246273
1878	0.0208091
1890	0.0190909
1902	0.0189
1914	0.0194727
1926	0.0215727
1938	0.0267273
1950	0.0183273
1962	0.0221454
1974	0.0171818
1986	0.0145091
1998	0.0135545
2010	0.0137454
2022	0.0129818
2034	0.0133636
2046	0.0152727
2058	0.0154636
2070	0.0154636
2082	0.0164182
2094	0.0166091
2106	0.0156545
2118	0.0148909
2130	0.0137454
2142	0.0135545
2154	0.0127909
2166	0.0126
2178	0.0127909
2190	0.0127909
2202	0.0126
2214	0.0126
2226	0.0124091
2238	0.0126
2250	0.0124091
2262	0.0118364
2274	0.0110727
2286	0.0118364
2298	0.0112636
2310	0.0106909
2322	0.0114545
2334	0.0116454
2346	0.0106909
2358	0.0106909
2370	0.0112636
2382	0.0129818
2394	0.0127909
2406	0.0122182
2418	0.0114545
2430	0.0106909
2442	0.00992727
2454	0.00973636
2466	0.00897272
2478	0.00935454
2490	0.0101182
2502	0.0103091
2514	0.0108818
2526	0.0114545
2538	0.0112636
2550	0.0116454
2562	0.0124091
2574	0.0118364
2586	0.0126
2598	0.0124091
2610	0.0122182
2622	0.0118364
2634	0.0126
2646	0.0124091
2658	0.0124091
2670	0.0126
2682	0.0124091
2694	0.0124091
2706	0.0129818
2718	0.0150818
2730	0.0198545
2742	0.0225273
2754	0.021
2766	0.0200454
2778	0.0200454
2790	0.0223364
2802	0.0227182
2814	0.0261545
2826	0.0326454
2838	0.0387545
2850	0.0469636
2862	0.0652909
2874	0.127527
2886	0.280827
2898	0.243791
2910	0.213054
2922	0.227182
2934	0.279491
2946	0.397663
2958	0.481282
2970	0.740727
2982	0.554782
2994	0.171054
3006	0.0742636
3018	0.0484909
3030	0.0435273
3042	0.0414273
3054	0.0378
3066	0.0595636
3078	0.119891
3090	0.0557454
3102	0.0316909
3114	0.0257727
3126	0.0211909
3138	0.0208091
3150	0.0221454
3162	0.0213818
3174	0.0206182
3186	0.0187091
3198	0.0173727
3210	0.0150818
3222	0.0133636
3234	0.0122182
3246	0.0112636
3258	0.0108818
3270	0.0112636
3282	0.0112636
3294	0.0114545
3306	0.0114545
3318	0.0112636
3330	0.0116454
3342	0.0126
3354	0.0127909
3366	0.0124091
3378	0.0127909
3390	0.0124091
3402	0.0124091
3414	0.0120273
3426	0.0120273
3438	0.0129818
3450	0.0137454
3462	0.0183273
3474	0.0192818
3486	0.0168
3498	0.0131727
3510	0.0106909
3522	0.0108818
3534	0.0106909
3546	0.0103091
3558	0.00954545
3570	0.0101182
3582	0.00992727
3594	0.0101182
3606	0.00973636
3618	0.0106909
3630	0.0112636
3642	0.00992727
3654	0.00992727
3666	0.0106909
3678	0.0114545
3690	0.0110727
3702	0.0118364
3714	0.0116454
3726	0.0116454
3738	0.0114545
3750	0.0124091
3762	0.0120273
3774	0.0118364
3786	0.0112636
3798	0.0116454
3810	0.0116454
3822	0.0118364
3834	0.0120273
3846	0.0129818
3858	0.0129818
3870	0.0124091
3882	0.0120273
3894	0.0127909
3906	0.0127909
3918	0.0126
3930	0.0124091
3942	0.0133636
3954	0.0137454
3966	0.0126
