Infrared Spectrum: Dibutyl phthalate
Formula: C 16 H 22 O 4
CAS: 84-74-2
Origin: Sadtler Research Labs Under US-EPA Contract
1/CM	ABSORBANCE
450	0.0318623
462	0.0118843
474	0.00952794
486	0.00368824
498	0.00594216
510	0.00881079
522	0.00409804
534	0.00973285
546	0.00645441
558	0.00850343
570	0.013626
582	0.00256128
594	0.00307353
606	0.00379069
618	0.00358578
630	0.00338088
642	0.00768383
654	0.0178265
666	0.00686422
678	0.0111672
690	0.0310427
702	0.0521476
714	0.0468201
726	0.0667981
738	0.115667
750	0.10491
762	0.0568603
774	0.0437466
786	0.0422098
798	0.0299157
810	0.0228466
822	0.0236662
834	0.0297108
846	0.0307353
858	0.0214123
870	0.0189534
882	0.0173142
894	0.0149578
906	0.016802
918	0.016802
930	0.0280716
942	0.0555284
954	0.0602412
966	0.0539917
978	0.0318623
990	0.0312476
1002	0.0288912
1014	0.03135
1026	0.0392387
1038	0.111364
1050	0.106139
1062	0.24496
1074	0.429167
1086	0.153779
1098	0.129191
1110	0.315447
1122	0.615013
1134	0.470353
1146	0.218835
1158	0.101426
1170	0.0604461
1182	0.0432343
1194	0.0439515
1206	0.053377
1218	0.0759162
1230	0.142919
1242	0.319954
1254	0.592781
1266	0.916014
1278	0.950643
1290	0.737032
1302	0.307455
1314	0.147017
1326	0.100709
1338	0.0661833
1350	0.0528647
1362	0.0435417
1374	0.0442588
1386	0.0755064
1398	0.0465128
1410	0.0258177
1422	0.0254078
1434	0.0328868
1446	0.0602412
1458	0.0746868
1470	0.0828829
1482	0.0587044
1494	0.0363701
1506	0.0204902
1518	0.016802
1530	0.0131137
1542	0.0122941
1554	0.0127039
1566	0.0169044
1578	0.0367799
1590	0.0268422
1602	0.0310427
1614	0.0181338
1626	0.0143431
1638	0.0132162
1650	0.0141382
1662	0.0164946
1674	0.0192608
1686	0.0270471
1698	0.0408779
1710	0.0701789
1722	0.142817
1734	0.380708
1746	1.02451
1758	0.484081
1770	0.14548
1782	0.0641343
1794	0.0339113
1806	0.0248956
1818	0.0190559
1830	0.0157775
1842	0.0131137
1854	0.0100402
1866	0.00901569
1878	0.00696667
1890	0.00594216
1902	0.00645441
1914	0.00727402
1926	0.00778628
1938	0.0108598
1950	0.00706912
1962	0.00860588
1974	0.00573726
1986	0.00338088
1998	0.00276618
2010	0.00317598
2022	0.00307353
2034	0.00307353
2046	0.00348333
2058	0.00399559
2070	0.00440539
2082	0.00491765
2094	0.0048152
2106	0.00430294
2118	0.00368824
2130	0.00297108
2142	0.00256128
2154	0.00204902
2166	0.00153677
2178	0.00153677
2190	0.00215147
2202	0.00194657
2214	0.00204902
2226	0.00215147
2238	0.00215147
2250	0.00204902
2262	0.00174167
2274	0.00163922
2286	0.00204902
2298	0.00235637
2310	0.00286863
2322	0.0046103
2334	0.00399559
2346	0.00327843
2358	0.00348333
2370	0.00276618
2382	0.00297108
2394	0.00297108
2406	0.00235637
2418	0.00194657
2430	0.00153677
2442	0.000922059
2454	0.000614706
2466	0.000102451
2478	0.000102451
2490	0.000204902
2502	0.000512255
2514	0.000922059
2526	0.00112696
2538	0.000819608
2550	0.000922059
2562	0.00143431
2574	0.00133186
2586	0.00153677
2598	0.00153677
2610	0.00163922
2622	0.00122941
2634	0.00102451
2646	0.00133186
2658	0.00184412
2670	0.00256128
2682	0.00225392
2694	0.00297108
2706	0.00317598
2718	0.00317598
2730	0.00420049
2742	0.0056348
2754	0.00717157
2766	0.00614706
2778	0.00624951
2790	0.00706912
2802	0.00870833
2814	0.011577
2826	0.0157775
2838	0.0219245
2850	0.038624
2862	0.0598314
2874	0.100504
2886	0.146095
2898	0.117511
2910	0.130523
2922	0.164536
2934	0.199677
2946	0.268627
2958	0.286863
2970	0.41298
2982	0.231334
2994	0.0997873
3006	0.0514304
3018	0.0320672
3030	0.0277642
3042	0.0245882
3054	0.0194657
3066	0.0291985
3078	0.0636221
3090	0.0257152
3102	0.011577
3114	0.00799118
3126	0.0048152
3138	0.00440539
3150	0.00532745
3162	0.00430294
3174	0.00338088
3186	0.00297108
3198	0.00174167
3210	0.00153677
3222	0.00102451
3234	0.000717157
3246	0.000717157
3258	0.000204902
3270	0.000102451
3282	0.000102451
3294	0.000102451
3306	0.000102451
3318	0.000819608
3330	0.000409804
3342	0.00122941
3354	0.000512255
3366	0.000307353
3378	0.000307353
3390	0.000307353
3402	0.000717157
3414	0.000614706
3426	0.00133186
3438	0.00122941
3450	0.00215147
3462	0.00430294
3474	0.00471275
3486	0.00338088
3498	0.00204902
3510	0.000512255
3522	0.000717157
3534	0.000614706
3546	0.00143431
3558	0.000922059
3570	0.000717157
3582	0.00102451
3594	0.00143431
3606	0.00143431
3618	0.00194657
3630	0.00163922
3642	0.00153677
3654	0.00184412
3666	0
3678	0.00266373
3690	0.00194657
3702	0.00163922
3714	0.00133186
3726	0.00174167
3738	0.00245882
3750	0.00143431
3762	0.00163922
3774	0.00153677
3786	0.000717157
3798	0.00204902
3810	0.000512255
3822	0.00256128
3834	0.00122941
3846	0.00194657
3858	0.00256128
3870	0.00174167
3882	0.00163922
3894	0.00215147
3906	0.000614706
3918	0.00276618
3930	0.00225392
3942	0.000922059
3954	0.00317598
3966	0.00286863
