Infrared Spectrum: Phenanthrene
Formula: C 14 H 10
CAS: 85-01-8
Origin: Sadtler Research Labs Under US-EPA Contract
1/CM	ABSORBANCE
450	0.0398157
462	0.0350891
474	0.0330863
486	0.0395753
498	0.0489484
510	0.0153815
522	0.0086521
534	0.0101742
546	0.0102543
558	0.0086521
570	0.00809131
582	0.00592829
594	0.00640896
606	0.00969355
618	0.0545563
630	0.0118566
642	0.00376526
654	0.00288403
666	0.00040056
678	0.00176246
690	0.00528739
702	0.0249148
714	0.080833
726	0.467293
738	0.440456
750	0.0649708
762	0.0108952
774	0.00440616
786	0.0173843
798	0.213899
810	0.472581
822	0.113919
834	0.0151412
846	0.0333266
858	0.0982173
870	0.0724212
882	0.0330061
894	0.00296414
906	0.0033647
918	0.00616862
930	0.0115361
942	0.0258762
954	0.0185059
966	0.0127378
978	0.0080112
990	0.0093731
1002	0.0347686
1014	0.00480672
1026	0.00857198
1038	0.0560784
1050	0.010735
1062	0.00360504
1074	0.00344482
1086	0.00961344
1098	0.0080112
1110	0.0020028
1122	0.00256358
1134	0.00849187
1146	0.0147406
1158	0.0115361
1170	0.0104947
1182	0.00761064
1194	0.015702
1206	0.0140196
1218	0.012898
1230	0.0286801
1242	0.0496694
1254	0.02147
1266	0.00729019
1278	0.00825154
1290	0.017865
1302	0.019307
1314	0.00632885
1326	0.00528739
1338	0.00544762
1350	0.00560784
1362	0.0060084
1374	0.00248347
1386	0.0060084
1398	0.00785098
1410	0.00753053
1422	0.0183456
1434	0.0298017
1446	0.054396
1458	0.107831
1470	0.0270779
1482	0.0197877
1494	0.0459042
1506	0.0604846
1518	0.0253154
1530	0.0253955
1542	0.0144202
1554	0.0053675
1566	0.00344482
1578	0.00672941
1590	0.0162627
1602	0.0219507
1614	0.0241938
1626	0.0131384
1638	0.00696974
1650	0.010014
1662	0.0233927
1674	0.0256358
1686	0.0183456
1698	0.0225115
1710	0.0110555
1722	0.01434
1734	0.0148207
1746	0.0290807
1758	0.0283596
1770	0.0201081
1782	0.01434
1794	0.0156218
1806	0.024354
1818	0.0252353
1830	0.0206689
1842	0.0112958
1854	0.00320448
1866	0.00384538
1878	0.0128179
1890	0.0201081
1902	0.0244342
1914	0.0333266
1926	0.0233927
1938	0.0381333
1950	0.0237132
1962	0.00256358
1974	0.00120168
1986	0.00144202
1998	0.00104146
2010	0.00176246
2022	0.00184258
2034	0.00112157
2046	0.00152213
2058	0.00208291
2070	0.00216302
2082	0.00232325
2094	0.00144202
2106	0.00160224
2118	0.00216302
2130	0.00224314
2142	0.000961344
2154	0.00104146
2166	0.00112157
2178	0.00112157
2190	0.000881232
2202	0.00112157
2214	0.00104146
2226	0.00128179
2238	0.00296414
2250	0.00232325
2262	0.00184258
2274	0.00232325
2286	0.00440616
2298	0.0060084
2310	0.00833165
2322	0.00648907
2334	0.00504706
2346	0.00192269
2358	0.00392549
2370	0.00224314
2382	0.00248347
2394	0.00224314
2406	0.00184258
2418	0.00152213
2430	0.00248347
2442	0.0033647
2454	0.00256358
2466	0.00224314
2478	0.00192269
2490	0.00160224
2502	0.00176246
2514	0.00192269
2526	0.00224314
2538	0.00120168
2550	0.00152213
2562	0.00160224
2574	0.00176246
2586	0.00256358
2598	0.00304426
2610	0.00344482
2622	0.00360504
2634	0.0026437
2646	0.00224314
2658	0.00224314
2670	0.00232325
2682	0.00160224
2694	0.0013619
2706	0.00112157
2718	0.000640896
2730	0.000640896
2742	0.000961344
2754	0.000240336
2766	0.000721008
2778	0.00040056
2790	0.00128179
2802	0.0013619
2814	0.00224314
2826	0.00312437
2838	0.00376526
2850	0.00408571
2862	0.00480672
2874	0.00576806
2886	0.00520728
2898	0.00568795
2910	0.00729019
2922	0.0117765
2934	0.0177849
2946	0.0177048
2958	0.015702
2970	0.01434
2982	0.0135389
2994	0.0177849
3006	0.04294
3018	0.101742
3030	0.164069
3042	0.19299
3054	0.318525
3066	0.463208
3078	0.32934
3090	0.184658
3102	0.108311
3114	0.0566392
3126	0.0248347
3138	0.0124975
3150	0.00704986
3162	0.00504706
3174	0.00488683
3186	0.00456638
3198	0.00368515
3210	0.00360504
3222	0.00368515
3234	0.00296414
3246	0.00224314
3258	0.00160224
3270	0.000961344
3282	0.00120168
3294	0.00160224
3306	0.00112157
3318	0.00152213
3330	0.000881232
3342	0.00144202
3354	0.00232325
3366	0.00128179
3378	0.000480672
3390	0.00232325
3402	0.00208291
3414	0.00128179
3426	0.0020028
3438	0.00208291
3450	0.00232325
3462	0.0020028
3474	0.0013619
3486	0.00104146
3498	0.00120168
3510	0.00152213
3522	0.00104146
3534	0.000881232
3546	0.00104146
3558	0.00168235
3570	0.00040056
3582	0.00144202
3594	0.00152213
3606	0.00232325
3618	0.00176246
3630	0.000961344
3642	0.00304426
3654	0.00040056
3666	0.00248347
3678	0.00272381
3690	0.00304426
3702	0.00504706
3714	0.00376526
3726	0.0033647
3738	0.00280392
3750	0.00448627
3762	0.00520728
3774	0.0046465
3786	0.00216302
3798	0.00392549
3810	0.00208291
3822	0.00144202
3834	0.00456638
3846	0.00144202
3858	0
3870	0.00384538
3882	0.00480672
3894	0.00632885
3906	0.00648907
3918	0.00456638
3930	0.00456638
3942	0.00520728
3954	0.0053675
3966	0.00256358
