Infrared Spectrum: Benzo[f]quinoline
Formula: C 13 H 9 N
CAS: 85-02-9
Origin: Sadtler Research Labs Under US-EPA Contract
1/CM	ABSORBANCE
450	0
462	0.00557158
474	0.00903626
486	0.0265469
498	0.0528598
510	0.027577
522	0.0124541
534	0.0236441
546	0.0197112
558	0.0138119
570	0.00262192
582	0.00529066
594	0.0119859
606	0.0074912
618	0.0286538
630	0.00524384
642	0.004682
654	0.00412016
666	0.00379242
678	0.00472882
690	0.00870852
702	0.02341
714	0.0232695
726	0.0306203
738	0.199313
750	0.322262
762	0.0725242
774	0.0300584
786	0.016902
798	0.0880684
810	0.215044
822	0.104502
834	0.244354
846	0.110355
858	0.0413421
870	0.0381115
882	0.0154506
894	0.002341
906	0.00412016
918	0.00337104
930	0.00884898
942	0.0158252
954	0.00950446
966	0.00922354
978	0.0109091
990	0.0293561
1002	0.0309948
1014	0.00917672
1026	0.0147951
1038	0.0292157
1050	0.0266874
1062	0.0120796
1074	0.00809986
1086	0.0386265
1098	0.0290284
1110	0.00486928
1122	0.00360514
1134	0.0112368
1146	0.00552476
1158	0.00660162
1170	0.00627388
1182	0.0270151
1194	0.0233632
1206	0.01222
1218	0.0263597
1230	0.0316503
1242	0.0174639
1254	0.0086617
1266	0.02341
1278	0.0266406
1290	0.0357705
1302	0.0389074
1314	0.0154038
1326	0.0028092
1338	0.00613342
1350	0.00646116
1362	0.00931718
1374	0.0407334
1386	0.12206
1398	0.0434021
1410	0.0201794
1422	0.0373155
1434	0.0246741
1446	0.0632538
1458	0.0655948
1470	0.0120796
1482	0.0517829
1494	0.174873
1506	0.0198985
1518	0.00730392
1530	0.0081935
1542	0.0123605
1554	0.0185407
1566	0.0360982
1578	0.0661567
1590	0.0672335
1602	0.0466327
1614	0.0403588
1626	0.0153101
1638	0.00440108
1650	0.00131096
1662	0.00191962
1674	0.0111432
1686	0.0204135
1698	0.00852124
1710	0.0063207
1722	0.00416698
1734	0.00716346
1746	0.0105813
1758	0.00477564
1770	0.00931718
1782	0.0145142
1794	0.0119859
1806	0.0162934
1818	0.00641434
1830	0.0116582
1842	0.00594614
1854	0.00262192
1866	0.00505656
1878	0.0116114
1890	0.0106281
1902	0.0162934
1914	0.0224736
1926	0.015872
1938	0.0315567
1950	0.0203199
1962	0.00252828
1974	0.00121732
1986	0.00074912
1998	0.00103004
2010	0.00159188
2022	0.00149824
2034	0.00215372
2046	0.00238782
2058	0.00243464
2070	0.00252828
2082	0.00262192
2094	0.00309012
2106	0.00252828
2118	0.0018728
2130	0.00229418
2142	0.00201326
2154	0.00159188
2166	0.00149824
2178	0.0018728
2190	0.00248146
2202	0.0025751
2214	0.00173234
2226	0.00206008
2238	0.00266874
2250	0.00252828
2262	0.00332422
2274	0.0056184
2286	0.00683572
2298	0.00805304
2310	0.00973856
2322	0.00894262
2334	0.00744438
2346	0.00847442
2358	0.0077253
2370	0.00711664
2382	0.0074912
2394	0.00309012
2406	0.00262192
2418	0.00309012
2430	0.00379242
2442	0.00463518
2454	0.00412016
2466	0.00318376
2478	0.00318376
2490	0.00379242
2502	0.00337104
2514	0.00341786
2526	0.00332422
2538	0.00323058
2550	0.00346468
2562	0.0037456
2574	0.00407334
2586	0.00393288
2598	0.00360514
2610	0.00412016
2622	0.0039797
2634	0.00402652
2646	0.00393288
2658	0.00393288
2670	0.00412016
2682	0.00407334
2694	0.00379242
2706	0.00337104
2718	0.00332422
2730	0.00309012
2742	0.00341786
2754	0.00299648
2766	0.0032774
2778	0.00365196
2790	0.00412016
2802	0.00416698
2814	0.0039797
2826	0.0042138
2838	0.00440108
2850	0.0035115
2862	0.00243464
2874	0.00519702
2886	0.00589932
2898	0.00594614
2910	0.0063207
2922	0.00618024
2934	0.00950446
2946	0.00824032
2958	0.00917672
2970	0.0132501
2982	0.0164338
2994	0.0277174
3006	0.0541707
3018	0.0773466
3030	0.0954192
3042	0.143737
3054	0.141209
3066	0.251096
3078	0.23218
3090	0.118174
3102	0.0663439
3114	0.0286538
3126	0.0141865
3138	0.00875534
3150	0.007023
3162	0.0065548
3174	0.00711664
3186	0.00646116
3198	0.00510338
3210	0.00440108
3222	0.00379242
3234	0.00294966
3246	0.00341786
3258	0.00294966
3270	0.00285602
3282	0.00309012
3294	0.0030433
3306	0.00290284
3318	0.00252828
3330	0.00266874
3342	0.00238782
3354	0.00266874
3366	0.00290284
3378	0.00285602
3390	0.00271556
3402	0.0028092
3414	0.00271556
3426	0.00252828
3438	0.00224736
3450	0.00243464
3462	0.00318376
3474	0.0032774
3486	0.0028092
3498	0.00271556
3510	0.0028092
3522	0.0028092
3534	0.00285602
3546	0.00323058
3558	0.00285602
3570	0.00276238
3582	0.00294966
3594	0.00388606
3606	0.00309012
3618	0.00369878
3630	0.00393288
3642	0.00309012
3654	0.00323058
3666	0.00271556
3678	0.00435426
3690	0.0044479
3702	0.00369878
3714	0.00337104
3726	0.00238782
3738	0.00337104
3750	0.00416698
3762	0.0042138
3774	0.0039797
3786	0.00402652
3798	0.00365196
3810	0.00323058
3822	0.00416698
3834	0.00360514
3846	0.00393288
3858	0.00388606
3870	0.00383924
3882	0.00472882
3894	0.00566522
3906	0.0058525
3918	0.0063207
3930	0.00599296
3942	0.00463518
3954	0.00496292
3966	0.00332422
