Infrared Spectrum: 2,4'-Dichlorobenzophenone
Formula: C 13 H 8 Cl 2 O
CAS: 85-29-0
Origin: Sadtler Research Labs Under US-EPA Contract
1/CM	ABSORBANCE
450	0.00766954
462	0.0553014
474	0.0379844
486	0.0361679
498	0.0111814
510	0.0108585
522	0.0433935
534	0.0289424
546	0.00758881
558	0.0060549
570	0.0080732
582	0.0160657
594	0.00968784
606	0.00423843
618	0.00637783
630	0.0110603
642	0.0289424
654	0.0467842
666	0.0175188
678	0.0276911
690	0.0255517
702	0.0301938
714	0.0323332
726	0.0249058
738	0.0977261
750	0.276103
762	0.0949812
774	0.0312029
786	0.0154198
798	0.0139263
810	0.0155005
822	0.0202234
834	0.0458558
846	0.0999866
858	0.0228875
870	0.0155813
882	0.0149354
894	0.0146529
906	0.0224839
918	0.108262
930	0.338267
942	0.0697928
954	0.0479548
966	0.0236948
978	0.0105355
990	0.00952638
1002	0.0136437
1014	0.0898547
1026	0.0298708
1038	0.0383073
1050	0.0535657
1062	0.0951023
1074	0.045775
1086	0.149193
1098	0.225404
1110	0.0517088
1122	0.0285388
1134	0.0281755
1146	0.0371367
1158	0.0552207
1170	0.0327772
1182	0.0303956
1194	0.0127153
1206	0.016106
1218	0.0342707
1230	0.073789
1242	0.140312
1254	0.171434
1266	0.132199
1278	0.239249
1290	0.324785
1302	0.140756
1314	0.100754
1326	0.0245425
1338	0.0137244
1350	0.0201426
1362	0.0153391
1374	0.0112217
1386	0.0233315
1398	0.067613
1410	0.0421017
1422	0.0431916
1434	0.0884419
1446	0.054373
1458	0.0354817
1470	0.0604279
1482	0.0712056
1494	0.0492465
1506	0.0137648
1518	0.0113025
1530	0.00770991
1542	0.0155005
1554	0.0305167
1566	0.0598628
1578	0.135953
1590	0.253458
1602	0.138254
1614	0.044443
1626	0.0226453
1638	0.0176399
1650	0.0260764
1662	0.0378633
1674	0.0812164
1686	0.259029
1698	0.381983
1710	0.0892089
1722	0.0245425
1734	0.0195371
1746	0.0134822
1758	0.00754844
1770	0.0116658
1782	0.0113428
1794	0.0130382
1806	0.0138859
1818	0.00799247
1830	0.00662002
1842	0.00690259
1854	0.00480355
1866	0.00508612
1878	0.00557051
1890	0.00625673
1902	0.00924381
1914	0.0117465
1926	0.00993004
1938	0.00670076
1950	0.00770991
1962	0.00431916
1974	0.00266416
1986	0.00234123
1998	0.00197793
2010	0.00258342
2022	0.00181647
2034	0.00250269
2046	0.00209903
2058	0.00133208
2070	0.00161464
2082	0.00217976
2094	0.00129171
2106	0.00113025
2118	0.00125135
2130	0.00108988
2142	0.00133208
2154	0.00125135
2166	0.00113025
2178	0.00141281
2190	0.000968784
2202	0.00153391
2214	0.00173574
2226	0.00133208
2238	0.00137244
2250	0.00141281
2262	0.00145318
2274	0.00217976
2286	0.00335038
2298	0.00326965
2310	0.00460172
2322	0.00577234
2334	0.00444026
2346	0.00359257
2358	0.00435953
2370	0.00165501
2382	0.00238159
2394	0.0021394
2406	0.00222013
2418	0.00238159
2430	0.00217976
2442	0.00169537
2454	0.00145318
2466	0.000968784
2478	0.00060549
2490	0.000847686
2502	0.00125135
2514	0.00197793
2526	0.00234123
2538	0.00294672
2550	0.00339074
2562	0.00306782
2574	0.00234123
2586	0.00242196
2598	0.00217976
2610	0.00169537
2622	0.00169537
2634	0.00161464
2646	0.00217976
2658	0.00205867
2670	0.00121098
2682	0.00133208
2694	0.00121098
2706	0.00117061
2718	0.00165501
2730	0.00185684
2742	0.00209903
2754	0.00185684
2766	0.000888052
2778	0.00100915
2790	0.00100915
2802	0.000928418
2814	0.000766954
2826	0.0018972
2838	0.00185684
2850	0.00193757
2862	0.00173574
2874	0.0021394
2886	0.00117061
2898	0.00185684
2910	0.00125135
2922	0.000968784
2934	0.000686222
2946	0.00100915
2958	0.000888052
2970	0.00133208
2982	0.00250269
2994	0.00318891
3006	0.00363294
3018	0.0059338
3030	0.00775027
3042	0.00884015
3054	0.0117061
3066	0.0369349
3078	0.0524354
3090	0.0340689
3102	0.0137244
3114	0.00524758
3126	0.00460172
3138	0.00528795
3150	0.00306782
3162	0.00108988
3174	0.00104952
3186	0.00104952
3198	0.00133208
3210	0.00104952
3222	0.000847686
3234	0.00165501
3246	0.00129171
3258	0.00153391
3270	0.00165501
3282	0.00100915
3294	0.00165501
3306	0.00161464
3318	0.00169537
3330	0.00145318
3342	0.00270452
3354	0.00431916
3366	0.00621636
3378	0.00274489
3390	0.00278525
3402	0.00302745
3414	0.00104952
3426	0.000565124
3438	0.00145318
3450	0.00133208
3462	0.00060549
3474	0.00169537
3486	0.000968784
3498	0.00169537
3510	0.00133208
3522	0.00141281
3534	0.00129171
3546	0.0021394
3558	0.0017761
3570	0.00100915
3582	0.000888052
3594	0.00197793
3606	0.00141281
3618	0.00185684
3630	0.00209903
3642	0.0020183
3654	0.000847686
3666	0.0022605
3678	0.00306782
3690	0.0021394
3702	0.00322928
3714	0.00318891
3726	0.00169537
3738	0.0039155
3750	0.00125135
3762	0.00165501
3774	0.00302745
3786	0.00181647
3798	0.00310818
3810	0.00137244
3822	0.0037944
3834	0.00331001
3846	0.00222013
3858	0.000766954
3870	0.0018972
3882	0.00274489
3894	0.00238159
3906	0.000686222
3918	0.00314855
3930	0.00254306
3942	0.00351184
3954	0.00375404
3966	0.00250269
