Infrared Spectrum: 1-Naphthalenesulfonic acid
Formula: C 10 H 8 O 3 S
CAS: 85-47-2
Origin: Sadtler Research Labs Under US-EPA Contract
1/CM	ABSORBANCE
450	0.104654
462	0.147926
474	0.149355
486	0.057855
498	0.0509925
510	0.0286892
522	0.00905473
534	0.0508018
546	0.0208735
558	0.0256392
570	0.0445112
582	0.0242095
594	0.0186813
606	0.0562347
618	0.0393643
630	0.0309767
642	0.0312627
654	0.0148688
666	0.0154407
678	0.0460362
690	0.0404127
702	0.0332642
714	0.0271642
726	0.00981724
738	0.0681488
750	0.106465
762	0.227798
774	0.463698
786	0.469131
798	0.211595
810	0.152787
822	0.117616
834	0.0590941
846	0.0508018
858	0.0417471
870	0.0193485
882	0.0371721
894	0.0353611
906	0.0278314
918	0.0382205
930	0.0400315
942	0.0472752
954	0.0601425
966	0.0329783
978	0.0175376
990	0.031358
1002	0.0824457
1014	0.160221
1026	0.236757
1038	0.0960755
1050	0.0286892
1062	0.0757738
1074	0.0818739
1086	0.137823
1098	0.122382
1110	0.0317392
1122	0.0663378
1134	0.070341
1146	0.0357424
1158	0.0244954
1170	0.034408
1182	0.031358
1194	0.0216361
1206	0.0375533
1218	0.0225892
1230	0.0247814
1242	0.031072
1254	0.0462268
1266	0.126576
1278	0.0617628
1290	0.0271642
1302	0.0164891
1314	0.0330736
1326	0.0151548
1338	0.0640503
1350	0.0301189
1362	0.0588081
1374	0.0604284
1386	0.0606191
1398	0.0759645
1410	0.0341221
1422	0.0439393
1434	0.0306908
1446	0.0282126
1458	0.0923583
1470	0.0199204
1482	0.0395549
1494	0.0511831
1506	0.122954
1518	0.118474
1530	0.0573784
1542	0.0855911
1554	0.0467987
1566	0.0244001
1578	0.0348846
1590	0.0364096
1602	0.0300236
1614	0.0195392
1626	0.0332642
1638	0.0447018
1650	0.0466081
1662	0.0440346
1674	0.0440346
1686	0.0582362
1698	0.0582362
1710	0.0395549
1722	0.0508971
1734	0.0761551
1746	0.0472752
1758	0.0512784
1770	0.0661472
1782	0.0395549
1794	0.0584269
1806	0.0352658
1818	0.0320252
1830	0.0426049
1842	0.0368861
1854	0.0150595
1866	0.020111
1878	0.0162032
1890	0.0330736
1902	0.0300236
1914	0.0260204
1926	0.029833
1938	0.042033
1950	0.0278314
1962	0.00981724
1974	0.0115329
1986	0.00991255
1998	0.00819692
2010	0.0113422
2022	0.00943599
2034	0.00686254
2046	0.0111516
2058	0.00695785
2070	0.0073391
2082	0.0104844
2094	0.00762504
2106	0.0073391
2118	0.00943599
2130	0.00724379
2142	0.00695785
2154	0.00972193
2166	0.00695785
2178	0.00838754
2190	0.00972193
2202	0.00686254
2214	0.00762504
2226	0.0100079
2238	0.00600472
2250	0.00943599
2262	0.0117235
2274	0.00934067
2286	0.0160126
2298	0.0212548
2310	0.020111
2322	0.0214454
2334	0.0183954
2346	0.0161079
2358	0.0241142
2370	0.0241142
2382	0.0153454
2394	0.00962661
2406	0.0095313
2418	0.00867348
2430	0.0115329
2442	0.00886411
2454	0.00600472
2466	0.00895942
2478	0.00752973
2490	0.00400315
2502	0.00991255
2514	0.00857817
2526	0.00629066
2538	0.0103891
2550	0.00772035
2562	0.00714847
2574	0.00981724
2586	0.00867348
2598	0.00667191
2610	0.00962661
2622	0.00781567
2634	0.00724379
2646	0.010961
2658	0.00791098
2670	0.00667191
2682	0.0122001
2694	0.00724379
2706	0.00791098
2718	0.0120094
2730	0.00819692
2742	0.0095313
2754	0.0134391
2766	0.00857817
2778	0.0107704
2790	0.0138204
2802	0.0100079
2814	0.0112469
2826	0.0160126
2838	0.0132485
2850	0.0153454
2862	0.017061
2874	0.0131532
2886	0.0156313
2898	0.0178235
2910	0.0153454
2922	0.0214454
2934	0.0268783
2946	0.0288798
2958	0.0463221
2970	0.0695785
2982	0.0422237
2994	0.0372674
3006	0.0466081
3018	0.0602378
3030	0.0930255
3042	0.14926
3054	0.350847
3066	0.448734
3078	0.298044
3090	0.131437
3102	0.0938833
3114	0.0357424
3126	0.0144876
3138	0.0169657
3150	0.0153454
3162	0.0120094
3174	0.0200157
3186	0.0152501
3198	0.0123907
3210	0.0184907
3222	0.0132485
3234	0.0136298
3246	0.0197298
3258	0.0119141
3270	0.00838754
3282	0.0161079
3294	0.00981724
3306	0.00762504
3318	0.0126766
3330	0.00943599
3342	0.00915005
3354	0.0142969
3366	0.00867348
3378	0.00857817
3390	0.0148688
3402	0.00762504
3414	0.00924536
3426	0.0147735
3438	0.00972193
3450	0.0129626
3462	0.0223032
3474	0.00676722
3486	0.0162985
3498	0.0154407
3510	0.018586
3522	0.0175376
3534	0.0174423
3546	0.0355517
3558	0.0176329
3570	0.0655753
3582	0.0195392
3594	0.0311674
3606	0.0225892
3618	0.0349799
3630	0.0580456
3642	0.0208735
3654	0.0309767
3666	0.0193485
3678	0.0440346
3690	0.0299283
3702	0.0348846
3714	0.0473706
3726	0.0511831
3738	0.0687207
3750	0.0520409
3762	0.026783
3774	0.0244001
3786	0.0252579
3798	0.0278314
3810	0.0297377
3822	0.0426049
3834	0.0323111
3846	0.0402221
3858	0.0428909
3870	0.0400315
3882	0.0530893
3894	0.0417471
3906	0.040508
3918	0.0447971
3930	0.0324064
3942	0.0312627
3954	0
3966	0.00362189
