Infrared Spectrum: Phthalic anhydride
Formula: C 8 H 4 O 3
CAS: 85-44-9
Origin: Sadtler Research Labs Under US-EPA Contract
1/CM	ABSORBANCE
450	0.00625481
462	0.0228624
474	0.0222153
486	0.0235094
498	0.0213526
510	0.0323524
522	0.048313
534	0.0664304
546	0.0517639
558	0.0196272
570	0.00690186
582	0.0163919
594	0.0075489
606	0.00172546
618	0.00647049
630	0.0153135
642	0.008843
654	0.00647049
666	0.0107841
678	0.0196272
690	0.0582344
702	0.192389
714	0.33474
726	0.120351
738	0.0161762
750	0.00517639
762	0.00301956
774	0.0271761
786	0.0487444
798	0.017686
810	0.00905869
822	0.00927437
834	0.0187644
846	0.026529
858	0.0373132
870	0.0752734
882	0.199291
894	0.505777
906	0.846124
918	0.701185
930	0.139978
942	0.0280388
954	0.0301956
966	0.0276074
978	0.0198428
990	0.0127253
1002	0.0273917
1014	0.0250192
1026	0.00690186
1038	0.00647049
1050	0.0140194
1062	0.0222153
1074	0.0334309
1086	0.0670774
1098	0.166723
1110	0.156802
1122	0.0498228
1134	0.017686
1146	0.0174703
1158	0.0375288
1170	0.0379602
1182	0.0200585
1194	0.0207056
1206	0.0295486
1218	0.0586658
1230	0.14688
1242	0.40268
1254	0.659127
1266	0.509228
1278	0.1059
1290	0.030627
1302	0.0200585
1314	0.0498228
1326	0.0929594
1338	0.102234
1350	0.0843321
1362	0.0534894
1374	0.0338622
1386	0.0196272
1398	0.0213526
1410	0.0250192
1422	0.0301956
1434	0.0301956
1446	0.0267447
1458	0.0593128
1470	0.0595285
1482	0.0301956
1494	0.0153135
1506	0.0284702
1518	0.0250192
1530	0.017686
1542	0.026529
1554	0.017686
1566	0.0146664
1578	0.0181174
1590	0.0226467
1602	0.0187644
1614	0.0146664
1626	0.0163919
1638	0.0144508
1650	0.0179017
1662	0.00949005
1674	0.0179017
1686	0.0215683
1698	0.026529
1710	0.0148821
1722	0.0230781
1734	0.0418425
1746	0.0403327
1758	0.0817439
1770	0.225389
1782	0.471914
1794	1.13341
1806	2.15683
1818	1.20416
1830	0.304976
1842	0.133076
1854	0.269819
1866	0.509443
1878	0.366661
1890	0.16435
1902	0.0662147
1914	0.0286858
1926	0.0228624
1938	0.0189801
1950	0.0185487
1962	0.0155292
1974	0.0194115
1986	0.0278231
1998	0.0284702
2010	0.0250192
2022	0.0163919
2034	0.00690186
2046	0.00603912
2058	0.00603912
2070	0.00582344
2082	0.00582344
2094	0.00452934
2106	0.0025882
2118	0.00431366
2130	0.00603912
2142	0.00841164
2154	0.0118626
2166	0.0109998
2178	0.00690186
2190	0.00366661
2202	0.00237251
2214	0.0025882
2226	0.00366661
2238	0.00388229
2250	0.00474503
2262	0.00474503
2274	0.00345093
2286	0.00301956
2298	0.00323524
2310	0.00301956
2322	0.00409798
2334	0.00452934
2346	0.00366661
2358	0.00237251
2370	0.00280388
2382	0.00366661
2394	0.0025882
2406	0.00172546
2418	0.00172546
2430	0.0025882
2442	0.00215683
2454	0.00172546
2466	0.000647049
2478	0.000431366
2490	0.000431366
2502	0.00150978
2514	0.00150978
2526	0.00237251
2538	0.00215683
2550	0.00150978
2562	0.00107841
2574	0.00107841
2586	0.0012941
2598	0.00215683
2610	0.00150978
2622	0.00172546
2634	0.0025882
2646	0.00194115
2658	0.0012941
2670	0.00194115
2682	0.00172546
2694	0.0025882
2706	0.0025882
2718	0.000862732
2730	0.000647049
2742	0.000647049
2754	0.000431366
2766	0.0012941
2778	0.00194115
2790	0.0012941
2802	0.000647049
2814	0.000431366
2826	0
2838	0.000431366
2850	0.000215683
2862	0.000862732
2874	0.00172546
2886	0.00237251
2898	0.00194115
2910	0.00172546
2922	0.0025882
2934	0.00366661
2946	0.00345093
2958	0.00301956
2970	0.0025882
2982	0.00237251
2994	0.00107841
3006	0.0012941
3018	0.00194115
3030	0.00323524
3042	0.00733322
3054	0.0133723
3066	0.0200585
3078	0.0232938
3090	0.0327838
3102	0.0215683
3114	0.00496071
3126	0.000647049
3138	0
3150	0.000647049
3162	0.000215683
3174	0.000862732
3186	0.000431366
3198	0.00107841
3210	0.00172546
3222	0.00280388
3234	0.00150978
3246	0.00107841
3258	0.000647049
3270	0.000647049
3282	0.00107841
3294	0.00107841
3306	0.000431366
3318	0.00150978
3330	0.00107841
3342	0.00107841
3354	0.00150978
3366	0.0012941
3378	0.00194115
3390	0.00194115
3402	0.00194115
3414	0.00215683
3426	0.0025882
3438	0.0025882
3450	0.00280388
3462	0.00215683
3474	0.0012941
3486	0.00172546
3498	0.0012941
3510	0.00107841
3522	0.0025882
3534	0.00107841
3546	0.00237251
3558	0.00215683
3570	0.00366661
3582	0.00496071
3594	0.00841164
3606	0.00798027
3618	0.00776459
3630	0.00905869
3642	0.0168233
3654	0.022431
3666	0.0144508
3678	0.0101371
3690	0.00452934
3702	0.00280388
3714	0.00172546
3726	0.00323524
3738	0.0012941
3750	0.00150978
3762	0.0025882
3774	0.00345093
3786	0.00301956
3798	0.000431366
3810	0.00107841
3822	0.00388229
3834	0.00496071
3846	0.00215683
3858	0.00301956
3870	0.00431366
3882	0.00301956
3894	0.00237251
3906	0.00409798
3918	0.00280388
3930	0.00172546
3942	0.000647049
3954	0.00107841
3966	0.00172546
