Infrared Spectrum: Benzyl butyl phthalate
Formula: C 19 H 20 O 4
CAS: 85-68-7
Origin: Sadtler Research Labs Under US-EPA Contract
1/CM	ABSORBANCE
450	0
462	0.0183213
474	0.0251918
486	0.0187793
498	0.0189511
510	0.018493
522	0.018035
534	0.0249055
546	0.0235314
558	0.0271384
570	0.0263941
582	0.0205542
594	0.0227871
606	0.0232451
618	0.0191228
630	0.0183213
642	0.0200389
654	0.0245047
666	0.0221
678	0.0335508
690	0.0618343
702	0.0763196
714	0.0598304
726	0.0703652
738	0.106263
750	0.107809
762	0.0539905
774	0.0402496
786	0.0388182
798	0.0318905
810	0.0270811
822	0.0257643
834	0.0269666
846	0.0279972
858	0.0235886
870	0.0247337
882	0.0273102
894	0.0270811
906	0.0323485
918	0.029314
930	0.0298293
942	0.0418527
954	0.049582
966	0.0478643
978	0.0357265
990	0.032463
1002	0.0332073
1014	0.0340661
1026	0.0515859
1038	0.0862245
1050	0.0767776
1062	0.180522
1074	0.217565
1086	0.0833046
1098	0.0871406
1110	0.215447
1122	0.385205
1134	0.262452
1146	0.107981
1158	0.0553646
1170	0.0411084
1182	0.0371006
1194	0.0379021
1206	0.0508988
1218	0.0616053
1230	0.0971028
1242	0.210695
1254	0.35383
1266	0.541165
1278	0.547635
1290	0.392075
1302	0.15825
1314	0.0811862
1326	0.0591434
1338	0.0448871
1350	0.039219
1362	0.0376731
1374	0.0521011
1386	0.0448299
1398	0.0298866
1410	0.0230161
1422	0.0240467
1434	0.02794
1446	0.0451734
1458	0.054105
1470	0.0476353
1482	0.0369288
1494	0.0379594
1506	0.0304019
1518	0.0204969
1530	0.0190656
1542	0.0186648
1554	0.0188938
1566	0.0213557
1578	0.0329783
1590	0.0282835
1602	0.0312607
1614	0.0234169
1626	0.0208405
1638	0.0192946
1650	0.0203824
1662	0.0204969
1674	0.0221573
1686	0.0261651
1698	0.0337799
1710	0.0492957
1722	0.0874269
1734	0.20474
1746	0.526794
1758	0.297034
1770	0.100824
1782	0.0511278
1794	0.0345814
1806	0.0287988
1818	0.0236459
1830	0.020955
1842	0.0191801
1854	0.0188366
1866	0.0186648
1878	0.017806
1890	0.0165464
1902	0.0156876
1914	0.0159166
1926	0.0168899
1938	0.0196954
1950	0.018035
1962	0.0183785
1974	0.0149433
1986	0.0140272
1998	0.0135692
2010	0.0133402
2022	0.0133974
2034	0.0130539
2046	0.0132257
2058	0.0134547
2070	0.0132257
2082	0.0135692
2094	0.0134547
2106	0.0132829
2118	0.0129967
2130	0.0126531
2142	0.0126531
2154	0.0123669
2166	0.0122524
2178	0.0125959
2190	0.0128822
2202	0.0123669
2214	0.0124241
2226	0.0125386
2238	0.0127104
2250	0.0127676
2262	0.0121951
2274	0.0122524
2286	0.0125386
2298	0.0128249
2310	0.0125959
2322	0.0131684
2334	0.0119661
2346	0.0116226
2358	0.0118516
2370	0.0118516
2382	0.0127104
2394	0.0125959
2406	0.0120806
2418	0.0119088
2430	0.0116798
2442	0.0115081
2454	0.0111073
2466	0.0112218
2478	0.0111645
2490	0.0112218
2502	0.0112218
2514	0.0115653
2526	0.0118516
2538	0.0119661
2550	0.0117371
2562	0.0118516
2574	0.0123669
2586	0.0122524
2598	0.0120233
2610	0.0123669
2622	0.0125386
2634	0.0124241
2646	0.0119661
2658	0.0120233
2670	0.0118516
2682	0.0120806
2694	0.0119661
2706	0.0120233
2718	0.0121951
2730	0.0125959
2742	0.0128822
2754	0.0133974
2766	0.0128249
2778	0.0129394
2790	0.013741
2802	0.0144853
2814	0.0156876
2826	0.0170617
2838	0.0186648
2850	0.0233024
2862	0.0290278
2874	0.0415092
2886	0.0554219
2898	0.0496392
2910	0.0511278
2922	0.0587426
2934	0.0701934
2946	0.093553
2958	0.105233
2970	0.135406
2982	0.0806136
2994	0.0442573
3006	0.0308027
3018	0.0279972
3030	0.0371006
3042	0.0476926
3054	0.0361273
3066	0.0467765
3078	0.0733996
3090	0.0377304
3102	0.0265086
3114	0.0213557
3126	0.0163746
3138	0.0143708
3150	0.0147143
3162	0.0143708
3174	0.0139127
3186	0.0130539
3198	0.0128822
3210	0.0129967
3222	0.0127104
3234	0.0127104
3246	0.0124241
3258	0.0125386
3270	0.0125959
3282	0.0123669
3294	0.0124814
3306	0.0123669
3318	0.0128249
3330	0.0124241
3342	0.0127104
3354	0.0127104
3366	0.0125386
3378	0.0125959
3390	0.0124241
3402	0.0123669
3414	0.0125959
3426	0.0125959
3438	0.0128249
3450	0.0125386
3462	0.0136265
3474	0.0137982
3486	0.0131112
3498	0.0127676
3510	0.0118516
3522	0.0120806
3534	0.0115081
3546	0.0113363
3558	0.0118516
3570	0.0115081
3582	0.0124814
3594	0.0121378
3606	0.0119088
3618	0.0120806
3630	0.0119088
3642	0.0113363
3654	0.0118516
3666	0.0125959
3678	0.0120806
3690	0.0125386
3702	0.0119088
3714	0.0128249
3726	0.0113935
3738	0.01105
3750	0.0143708
3762	0.0128249
3774	0.0126531
3786	0.0119661
3798	0.0116226
3810	0.0135119
3822	0.0128822
3834	0.0116798
3846	0.0125959
3858	0.0121378
3870	0.0113935
3882	0.0109928
3894	0.0120233
3906	0.0114508
3918	0.0117371
3930	0.0133402
3942	0.0132829
3954	0.0125386
3966	0.0131112
