Infrared Spectrum: Phthalic acid, butyl ester, ester with butyl glycolate
Formula: C 18 H 24 O 6
CAS: 85-70-1
Origin: Sadtler Research Labs Under US-EPA Contract
1/CM	ABSORBANCE
450	0.0168129
462	0.00954086
474	0.00930816
486	0.00808646
498	0.00971539
510	0.00773741
522	0.00471226
534	0.00541037
546	0.00715565
558	0.0100063
570	0.0136132
582	0.0106462
594	0.00965722
606	0.00721382
618	0.00773741
630	0.00808646
642	0.00814464
654	0.0134968
666	0.00762106
678	0.0099481
690	0.0172201
702	0.0289716
714	0.0327531
726	0.0409559
738	0.0691131
750	0.068764
762	0.0392106
774	0.0301352
786	0.0267028
798	0.0201871
810	0.0180927
822	0.0186163
834	0.0200125
846	0.0203034
858	0.0165802
870	0.0133805
882	0.0111116
894	0.011228
906	0.0134387
918	0.0141949
930	0.0201871
942	0.0368836
954	0.0459009
966	0.0446792
978	0.0318804
990	0.0327531
1002	0.0407232
1014	0.0523002
1026	0.0616666
1038	0.0814464
1050	0.0807483
1062	0.124148
1074	0.262548
1086	0.19105
1098	0.10239
1110	0.204081
1122	0.465466
1134	0.383438
1146	0.148872
1158	0.0746398
1170	0.069753
1182	0.11897
1194	0.274416
1206	0.186221
1218	0.114374
1230	0.145731
1242	0.242129
1254	0.321597
1266	0.451329
1278	0.492925
1290	0.454704
1302	0.238754
1314	0.111814
1326	0.0661461
1338	0.0451446
1350	0.0405487
1362	0.0588159
1374	0.0755706
1386	0.0596886
1398	0.0592813
1410	0.0289135
1422	0.0329858
1434	0.0408977
1446	0.0439811
1458	0.0484024
1470	0.0493914
1482	0.0349638
1494	0.0235031
1506	0.0151839
1518	0.0129151
1530	0.0100063
1542	0.0114607
1554	0.00919181
1566	0.0108207
1578	0.0227468
1590	0.0170456
1602	0.0194308
1614	0.0113443
1626	0.0108789
1638	0.00983174
1650	0.0117516
1662	0.0109371
1674	0.0133223
1686	0.0185581
1698	0.0259465
1710	0.0405487
1722	0.0798756
1734	0.182789
1746	0.478556
1758	0.58176
1770	0.280757
1782	0.178717
1794	0.0670188
1806	0.0375235
1818	0.0228632
1830	0.0159984
1842	0.0136714
1854	0.00919181
1866	0.00831917
1878	0.00651571
1890	0.00488678
1902	0.00488678
1914	0.00546854
1926	0.00482861
1938	0.0075047
1950	0.00488678
1962	0.00494496
1974	0.00401414
1986	0.00250157
1998	0.00180346
2010	0.00221069
2022	0.00221069
2034	0.00215251
2046	0.00279245
2058	0.00279245
2070	0.00302515
2082	0.00389779
2094	0.00389779
2106	0.00401414
2118	0.00395597
2130	0.00325786
2142	0.00285062
2154	0.00279245
2166	0.00191981
2178	0.00151258
2190	0.00139622
2202	0.0012217
2214	0.00116352
2226	0.0012217
2238	0.00127987
2250	0.00162893
2262	0.00110534
2274	0.00133805
2286	0.00191981
2298	0.00191981
2310	0.00191981
2322	0.00197798
2334	0.00180346
2346	0.00186163
2358	0.00151258
2370	0.00151258
2382	0.00203616
2394	0.00151258
2406	0.0012217
2418	0.00104717
2430	0.000639936
2442	0.000407232
2454	0.000523584
2466	0.000407232
2478	0
2490	0.000349056
2502	0.00058176
2514	0.00058176
2526	0.000639936
2538	0.00029088
2550	0.000523584
2562	0.000814464
2574	0.000698112
2586	0.000814464
2598	0.000988992
2610	0.00104717
2622	0.00127987
2634	0.00116352
2646	0.000988992
2658	0.00116352
2670	0.00162893
2682	0.00186163
2694	0.00238522
2706	0.00221069
2718	0.00221069
2730	0.0031415
2742	0.00366509
2754	0.00407232
2766	0.00389779
2778	0.00442138
2790	0.00494496
2802	0.00564307
2814	0.00698112
2826	0.00930816
2838	0.0131478
2850	0.0215251
2862	0.0337421
2874	0.0557326
2886	0.0808065
2898	0.0659134
2910	0.0728945
2922	0.092209
2934	0.113443
2946	0.155737
2958	0.174237
2970	0.241081
2982	0.138284
2994	0.0638772
3006	0.0331603
3018	0.0195471
3030	0.015882
3042	0.0137295
3054	0.0112861
3066	0.0161148
3078	0.0339166
3090	0.0150676
3102	0.00721382
3114	0.00552672
3126	0.00360691
3138	0.00337421
3150	0.00360691
3162	0.00354874
3174	0.00255974
3186	0.00238522
3198	0.00197798
3210	0.00203616
3222	0.000988992
3234	0.00133805
3246	0.00110534
3258	0.00087264
3270	0.00110534
3282	0.00058176
3294	0.000639936
3306	0.00133805
3318	0.000988992
3330	0.00116352
3342	0.00110534
3354	0.00110534
3366	0.0012217
3378	0.000698112
3390	0.000814464
3402	0.000930816
3414	0.00087264
3426	0.000988992
3438	0.00133805
3450	0.00104717
3462	0.00221069
3474	0.00215251
3486	0.0026761
3498	0.00285062
3510	0.00133805
3522	0.00116352
3534	0.00087264
3546	0.000930816
3558	0.000349056
3570	0.00151258
3582	0.00133805
3594	0.00116352
3606	0.00104717
3618	0
3630	0.00110534
3642	0.00186163
3654	0.00162893
3666	0.00087264
3678	0.00209434
3690	0.00215251
3702	0.00127987
3714	0.00203616
3726	0.000698112
3738	0.00162893
3750	0.00226886
3762	0.00180346
3774	0.00104717
3786	0.0012217
3798	0.00197798
3810	0.00127987
3822	0.00197798
3834	0.00215251
3846	0.0014544
3858	0.00244339
3870	0.00191981
3882	0.00139622
3894	0.00157075
3906	0.0012217
3918	0.0014544
3930	0.00215251
3942	0.000639936
3954	0.00186163
3966	0.00157075
