Infrared Spectrum: Benzoic acid, 2-(methylamino)-, methyl ester
Formula: C 9 H 11 N O 2
CAS: 85-91-6
Origin: Sadtler Research Labs Under US-EPA Contract
1/CM	ABSORBANCE
450	0.00992906
462	0.00756831
474	0.00333283
486	0.00284679
498	0.00854038
510	0.0209691
522	0.03312
534	0.0378415
546	0.031523
558	0.0227744
570	0.0298566
582	0.0303427
594	0.0154838
606	0.0120815
618	0.0149283
630	0.00840151
642	0.0112483
654	0.015831
666	0.0202747
678	0.00833208
690	0.0222189
702	0.0651291
714	0.0290928
726	0.0195804
738	0.0830431
750	0.15942
762	0.035203
774	0.00624906
786	0.00888755
798	0.0132619
810	0.0132619
822	0.0181917
834	0.0268015
846	0.0143034
858	0.00527698
870	0.00180528
882	0.00222189
894	0.00520755
906	0.00506868
918	0.00152755
930	0.00361057
942	0.0067351
954	0.00784604
966	0.00611019
978	0.00777661
990	0.00590189
1002	0.0067351
1014	0.00888755
1026	0.0132619
1038	0.0270098
1050	0.0307593
1062	0.0572831
1074	0.0717948
1086	0.130397
1098	0.149977
1110	0.0756831
1122	0.165531
1134	0.20976
1146	0.0907502
1158	0.159629
1170	0.262599
1182	0.120746
1194	0.10922
1206	0.0824182
1218	0.0990129
1230	0.260377
1242	0.628308
1254	0.653305
1266	0.54589
1278	0.19379
1290	0.0892921
1302	0.0811683
1314	0.128383
1326	0.158518
1338	0.0890144
1350	0.0282596
1362	0.0186083
1374	0.0170808
1386	0.0129842
1398	0.0109706
1410	0.0153449
1422	0.0359668
1434	0.132133
1446	0.16567
1458	0.0752665
1470	0.0806823
1482	0.0624906
1494	0.0646431
1506	0.0722808
1518	0.219897
1530	0.256142
1542	0.0520061
1554	0.0291623
1566	0.0477012
1578	0.163378
1590	0.279541
1602	0.18032
1614	0.16435
1626	0.0700589
1638	0.0372166
1650	0.0309676
1662	0.04048
1674	0.0554083
1686	0.108942
1698	0.395149
1710	0.538877
1722	0.120676
1734	0.0627683
1746	0.0440212
1758	0.0272181
1770	0.016803
1782	0.0104845
1794	0.00916529
1806	0.0065268
1818	0.00395774
1830	0.00215245
1842	0.00222189
1854	0.00256906
1866	0.00402717
1878	0.00263849
1890	0.0032634
1902	0.00451321
1914	0.00847095
1926	0.00659623
1938	0.00798491
1950	0.00381887
1962	0.0032634
1974	0.00249962
1986	0.00138868
1998	0.000763774
2010	0.00208302
2022	0.0030551
2034	0.00402717
2046	0.00499925
2058	0.00569359
2070	0.00472151
2082	0.00319396
2094	0.00284679
2106	0.0030551
2118	0.00277736
2130	0.00222189
2142	0.00263849
2154	0.0038883
2166	0.0030551
2178	0.00131925
2190	0.00124981
2202	0.00145811
2214	0.00173585
2226	0.00229132
2238	0.00243019
2250	0.0032634
2262	0.0034717
2274	0.00340227
2286	0.00284679
2298	0.00291623
2310	0.00194415
2322	0.000416604
2334	0.000486038
2346	0.000486038
2358	0.000486038
2370	0.000486038
2382	0.00333283
2394	0.00374944
2406	0.00423547
2418	0.00395774
2430	0.00430491
2442	0.00451321
2454	0.00374944
2466	0.00270793
2478	0.00361057
2490	0.00437434
2502	0.00458264
2514	0.00368
2526	0.00374944
2538	0.00333283
2550	0.00340227
2562	0.00374944
2574	0.00465208
2586	0.00576302
2598	0.00604076
2610	0.00506868
2622	0.00465208
2634	0.00617963
2646	0.00659623
2658	0.00638793
2670	0.00569359
2682	0.00576302
2694	0.00569359
2706	0.00611019
2718	0.00562415
2730	0.00562415
2742	0.00631849
2754	0.00687397
2766	0.00680453
2778	0.00819321
2790	0.0107623
2802	0.0134702
2814	0.02208
2826	0.0550612
2838	0.0559638
2850	0.0368695
2862	0.0309676
2874	0.0369389
2886	0.0513812
2898	0.0533253
2910	0.0797797
2922	0.0875563
2934	0.0622823
2946	0.0623517
2958	0.119635
2970	0.0865842
2982	0.0414521
2994	0.0608936
3006	0.0454793
3018	0.0341615
3030	0.0430491
3042	0.0349253
3054	0.0269404
3066	0.0256906
3078	0.0335366
3090	0.0495064
3102	0.035203
3114	0.0202747
3126	0.0104151
3138	0.00590189
3150	0.00506868
3162	0.00444378
3174	0.00506868
3186	0.00555472
3198	0.00541585
3210	0.00548529
3222	0.00645736
3234	0.00548529
3246	0.0038883
3258	0.00486038
3270	0.00541585
3282	0.00631849
3294	0.00847095
3306	0.00867925
3318	0.00680453
3330	0.00791548
3342	0.010554
3354	0.0170113
3366	0.0333978
3378	0.0898476
3390	0.144631
3402	0.114288
3414	0.054714
3426	0.0213162
3438	0.0117343
3450	0.00867925
3462	0.00881812
3474	0.0132619
3486	0.00881812
3498	0.00638793
3510	0.00583246
3522	0.00708227
3534	0.00472151
3546	0.00333283
3558	0.0030551
3570	0.00256906
3582	0.0030551
3594	0.00270793
3606	0.00187472
3618	0.00138868
3630	0.00111094
3642	0.00173585
3654	0.00277736
3666	0.00354113
3678	0.0038883
3690	0.00319396
3702	0.00215245
3714	0.00131925
3726	0.00124981
3738	0.00215245
3750	0.00243019
3762	0.0032634
3774	0.00374944
3786	0.00243019
3798	0.000833208
3810	0.000486038
3822	0.000486038
3834	0.00118038
3846	0.00284679
3858	0.00263849
3870	0.00368
3882	0.00381887
3894	0.0032634
3906	0.00243019
3918	0.0032634
3930	0.00277736
3942	0.00486038
3954	0
3966	0.000486038
