Infrared Spectrum: Methanone, bis(pentafluorophenyl)-
Formula: C 13 F 10 O
CAS: 853-39-4
Origin: Sadtler Research Labs Under US-EPA Contract
1/CM	ABSORBANCE
450	0
462	0.0159381
474	0.0176285
486	0.0277709
498	0.022096
510	0.0188359
522	0.0198019
534	0.0165418
546	0.0159381
558	0.016421
570	0.0292198
582	0.0254768
594	0.0171455
606	0.0137647
618	0.0156966
630	0.02113
642	0.0281331
654	0.0600093
666	0.0386378
678	0.0286161
690	0.0175077
702	0.0455201
714	0.0997337
726	0.0195604
738	0.0198019
750	0.0235449
762	0.0533684
774	0.216734
786	0.0631486
798	0.0283746
810	0.030548
822	0.0387585
834	0.0175077
846	0.0127988
858	0.0120743
870	0.0138854
882	0.0223375
894	0.0243901
906	0.0147306
918	0.012195
930	0.0120743
942	0.0140062
954	0.0218545
966	0.0403282
978	0.077034
990	0.241969
1002	0.429604
1014	0.147306
1026	0.152136
1038	0.14791
1050	0.132334
1062	0.039
1074	0.0229412
1086	0.0230619
1098	0.0292198
1110	0.0918854
1122	0.101786
1134	0.0402074
1146	0.0545758
1158	0.117362
1170	0.25996
1182	0.300892
1194	0.144409
1206	0.0376718
1218	0.0228204
1230	0.0212508
1242	0.0190774
1254	0.0219752
1266	0.0206471
1278	0.0222167
1290	0.0222167
1302	0.0293405
1314	0.0650805
1326	0.194879
1338	0.339892
1350	0.0534891
1362	0.0324799
1374	0.0278916
1386	0.0464861
1398	0.0981641
1410	0.246436
1422	0.0748607
1434	0.0460031
1446	0.0370681
1458	0.0470898
1470	0.106012
1482	0.281693
1494	0.751384
1506	1.16758
1518	0.655272
1530	0.288817
1542	0.0810186
1554	0.0415356
1566	0.0309102
1578	0.0290991
1590	0.038034
1602	0.0374303
1614	0.0443127
1626	0.0707554
1638	0.136802
1650	0.246678
1662	0.0580774
1674	0.0344118
1686	0.0486594
1698	0.0851238
1710	0.182805
1722	0.157087
1734	0.0616997
1746	0.0351362
1758	0.0243901
1770	0.0188359
1782	0.0165418
1794	0.0148514
1806	0.0155758
1818	0.0137647
1830	0.0130402
1842	0.0132817
1854	0.0138854
1866	0.0132817
1878	0.0129195
1890	0.0124365
1902	0.0125573
1914	0.0129195
1926	0.0134025
1938	0.0125573
1950	0.012195
1962	0.012195
1974	0.0123158
1986	0.012678
1998	0.0129195
2010	0.0137647
2022	0.0137647
2034	0.0140062
2046	0.0137647
2058	0.013644
2070	0.0142477
2082	0.0141269
2094	0.0135232
2106	0.0130402
2118	0.0124365
2130	0.012678
2142	0.013644
2154	0.013644
2166	0.0130402
2178	0.0129195
2190	0.0127988
2202	0.0127988
2214	0.013161
2226	0.0140062
2238	0.0125573
2250	0.0114706
2262	0.0117121
2274	0.0124365
2286	0.0124365
2298	0.0120743
2310	0.0109876
2322	0.0124365
2334	0.0146099
2346	0.013161
2358	0.0148514
2370	0.0143684
2382	0.0129195
2394	0.0155758
2406	0.0175077
2418	0.0154551
2430	0.0140062
2442	0.0137647
2454	0.0142477
2466	0.0161796
2478	0.0154551
2490	0.0155758
2502	0.0152136
2514	0.0163003
2526	0.0160588
2538	0.0161796
2550	0.0154551
2562	0.0154551
2574	0.0141269
2586	0.0134025
2598	0.0132817
2610	0.0138854
2622	0.0154551
2634	0.0175077
2646	0.01787
2658	0.016421
2670	0.0165418
2682	0.0144892
2694	0.0134025
2706	0.0129195
2718	0.0127988
2730	0.0129195
2742	0.0134025
2754	0.0137647
2766	0.013644
2778	0.0129195
2790	0.0123158
2802	0.0120743
2814	0.0120743
2826	0.0125573
2838	0.0123158
2850	0.0124365
2862	0.012678
2874	0.0127988
2886	0.0130402
2898	0.0140062
2910	0.0147306
2922	0.0142477
2934	0.0144892
2946	0.0140062
2958	0.013644
2970	0.013161
2982	0.0123158
2994	0.0123158
3006	0.012195
3018	0.0127988
3030	0.0129195
3042	0.0129195
3054	0.012678
3066	0.0123158
3078	0.0124365
3090	0.0123158
3102	0.012678
3114	0.0129195
3126	0.013161
3138	0.0130402
3150	0.0127988
3162	0.012195
3174	0.0120743
3186	0.0119536
3198	0.0120743
3210	0.0120743
3222	0.012195
3234	0.0123158
3246	0.0119536
3258	0.0123158
3270	0.0119536
3282	0.0115913
3294	0.0117121
3306	0.0119536
3318	0.0119536
3330	0.0120743
3342	0.0123158
3354	0.0123158
3366	0.0127988
3378	0.0125573
3390	0.0134025
3402	0.0138854
3414	0.0127988
3426	0.0130402
3438	0.0123158
3450	0.0123158
3462	0.0124365
3474	0.0119536
3486	0.0117121
3498	0.0119536
3510	0.0114706
3522	0.0115913
3534	0.0114706
3546	0.0114706
3558	0.0115913
3570	0.0124365
3582	0.0120743
3594	0.0114706
3606	0.0120743
3618	0.0118328
3630	0.0123158
3642	0.0115913
3654	0.0115913
3666	0.0117121
3678	0.0114706
3690	0.0111084
3702	0.0118328
3714	0.0112291
3726	0.0117121
3738	0.0118328
3750	0.0109876
3762	0.0114706
3774	0.0115913
3786	0.0109876
3798	0.0115913
3810	0.0109876
3822	0.0111084
3834	0.0112291
3846	0.0113498
3858	0.0118328
3870	0.0109876
3882	0.0111084
3894	0.0113498
3906	0.0113498
3918	0.0109876
3930	0.0112291
3942	0.0109876
3954	0.0109876
3966	0.0114706
