Infrared Spectrum: 1,1'-Biphenyl, 2-nitro-
Formula: C 12 H 9 N O 2
CAS: 86-00-0
Origin: Sadtler Research Labs Under US-EPA Contract
1/CM	ABSORBANCE
450	0.00529366
462	0.018021
474	0.0202736
486	0.0176831
498	0.0195978
510	0.0295093
522	0.0514724
534	0.0514724
546	0.0271441
558	0.0145294
570	0.0195978
582	0.0174578
594	0.00608207
606	0.0168947
618	0.035704
630	0.00484313
642	0.00529366
654	0.0271441
666	0.115222
678	0.102156
690	0.201046
702	0.292953
714	0.108576
726	0.111505
738	0.28169
750	0.364249
762	0.246887
774	0.188657
786	0.0844732
798	0.0218504
810	0.0148673
822	0.0141915
834	0.0331135
846	0.167257
858	0.194626
870	0.0244409
882	0.0103621
894	0.00901048
906	0.0204988
918	0.0211746
930	0.0104747
942	0.0140789
954	0.0150926
966	0.00901048
978	0.00934837
990	0.0097989
1002	0.0470798
1014	0.0920195
1026	0.0105873
1038	0.023202
1050	0.027482
1062	0.0252293
1074	0.0397587
1086	0.026243
1098	0.0261304
1110	0.0175704
1122	0.0105873
1134	0.00664523
1146	0.0101368
1158	0.011601
1170	0.0103621
1182	0.0150926
1194	0.00889785
1206	0.0065326
1218	0.00732102
1230	0.0106999
1242	0.0192599
1254	0.028383
1266	0.0545134
1278	0.0599197
1290	0.035704
1302	0.046404
1314	0.0577797
1326	0.0700565
1338	0.130314
1350	0.418086
1362	0.565971
1374	0.220306
1386	0.0690428
1398	0.0448271
1410	0.0439261
1422	0.0359293
1434	0.0391956
1446	0.0663397
1458	0.0617218
1470	0.145294
1482	0.15284
1494	0.120853
1506	0.15667
1518	0.256236
1530	0.483187
1542	0.968063
1554	0.773324
1566	0.36301
1578	0.238102
1590	0.158584
1602	0.190572
1614	0.109252
1626	0.0413356
1638	0.0257925
1650	0.0122768
1662	0.0141915
1674	0.0131778
1686	0.00641997
1698	0.00540629
1710	0.00901048
1722	0.00822206
1734	0.00889785
1746	0.012502
1758	0.00912311
1770	0.00574418
1782	0.00788417
1794	0.0150926
1806	0.0206115
1818	0.0201609
1830	0.00743365
1842	0.00844733
1854	0.00923574
1866	0.009461
1878	0.0159936
1890	0.0156557
1902	0.0121641
1914	0.0104747
1926	0.018922
1938	0.0200483
1950	0.0223009
1962	0.0233146
1974	0.00608207
1986	0.00270314
1998	0.00135157
2010	0.00213999
2022	0.0014642
2034	0.000788417
2046	0.00157683
2058	0.000675786
2070	0.000563155
2082	0.00135157
2094	0.000563155
2106	0.000901048
2118	0.00123894
2130	0.000450524
2142	0.00101368
2154	0.00123894
2166	0.000563155
2178	0.00168947
2190	0.00213999
2202	0.00123894
2214	0.00191473
2226	0.00168947
2238	0.0018021
2250	0.00304104
2262	0.00247788
2274	0.00213999
2286	0.0047305
2298	0.00506839
2310	0.00788417
2322	0.00934837
2334	0.00337893
2346	0.00461787
2358	0.00416735
2370	0.00213999
2382	0.00608207
2394	0.00608207
2406	0.00394208
2418	0.00337893
2430	0.00281577
2442	0.00315367
2454	0.00427998
2466	0.00371682
2478	0.00247788
2490	0.00371682
2502	0.00382945
2514	0.00382945
2526	0.00382945
2538	0.00281577
2550	0.00382945
2562	0.00439261
2574	0.00405472
2586	0.00529366
2598	0.00574418
2610	0.00574418
2622	0.00574418
2634	0.00540629
2646	0.00416735
2658	0.00484313
2670	0.00416735
2682	0.00450524
2694	0.00596944
2706	0.00641997
2718	0.00608207
2730	0.00461787
2742	0.00382945
2754	0.00405472
2766	0.00461787
2778	0.00405472
2790	0.00439261
2802	0.00461787
2814	0.0047305
2826	0.00675786
2838	0.00833469
2850	0.0113757
2862	0.0157683
2874	0.0206115
2886	0.0242157
2898	0.0246662
2910	0.0186967
2922	0.013741
2934	0.0123894
2946	0.0112631
2958	0.0102494
2970	0.0103621
2982	0.0102494
2994	0.0126147
3006	0.0156557
3018	0.0317619
3030	0.0810943
3042	0.110491
3054	0.0844732
3066	0.195527
3078	0.267161
3090	0.136621
3102	0.0621723
3114	0.0346903
3126	0.0171199
3138	0.0109252
3150	0.0102494
3162	0.00698312
3174	0.00506839
3186	0.00349156
3198	0.00394208
3210	0.00315367
3222	0.00304104
3234	0.00337893
3246	0.00292841
3258	0.00112631
3270	0.00337893
3282	0.00259051
3294	0.00281577
3306	0.00337893
3318	0.00247788
3330	0.00213999
3342	0.00382945
3354	0.00304104
3366	0.00360419
3378	0.00416735
3390	0.00304104
3402	0.00349156
3414	0.00292841
3426	0.00270314
3438	0.00382945
3450	0.00382945
3462	0.00337893
3474	0.00405472
3486	0.00585681
3498	0.00292841
3510	0.00360419
3522	0.00450524
3534	0.00259051
3546	0.00596944
3558	0.00540629
3570	0.0047305
3582	0.00608207
3594	0.00450524
3606	0.00439261
3618	0.00439261
3630	0.00315367
3642	0.00664523
3654	0.00765891
3666	0.00630734
3678	0.00518103
3690	0.00630734
3702	0.00608207
3714	0.00675786
3726	0.00596944
3738	0.00518103
3750	0.00495576
3762	0.00619471
3774	0.00495576
3786	0.00641997
3798	0.00484313
3810	0.00574418
3822	0.00709575
3834	0.00416735
3846	0.00551892
3858	0.00608207
3870	0.00360419
3882	0.00619471
3894	0.00349156
3906	0.00484313
3918	0.00822206
3930	0.00743365
3942	0.00551892
3954	0.00574418
3966	0.00518103
