Infrared Spectrum: Benzaldehyde, 2,3-dimethoxy-
Formula: C 9 H 10 O 3
CAS: 86-51-1
Origin: Sadtler Research Labs Under US-EPA Contract
1/CM	ABSORBANCE
450	0.00297686
462	0.00429991
474	0.00523706
486	0.00137818
498	0.00744215
510	0.00893057
522	0.0146638
534	0.0139471
546	0.00523706
558	0.00319737
570	0.00876519
582	0.00622935
594	0.00600884
606	0.0135061
618	0.0141676
630	0.0174201
642	0.0222713
654	0.0174753
666	0.0157663
678	0.0140023
690	0.0187983
702	0.0176406
714	0.0175855
726	0.023429
738	0.0608051
750	0.132029
762	0.118854
774	0.069019
786	0.0757445
798	0.0825251
810	0.0778945
822	0.0310916
834	0.0133407
846	0.0109151
858	0.00865494
870	0.01086
882	0.0117421
894	0.0194047
906	0.0355569
918	0.0343441
930	0.0190188
942	0.0241456
954	0.0248623
966	0.019956
978	0.023429
990	0.0483464
1002	0.126186
1014	0.181809
1026	0.11064
1038	0.0947633
1050	0.0934954
1062	0.107277
1074	0.151654
1086	0.125469
1098	0.0563398
1110	0.030816
1122	0.0242008
1134	0.0225469
1146	0.0263507
1158	0.042558
1170	0.0675306
1182	0.0754689
1194	0.0656563
1206	0.0867148
1218	0.164278
1230	0.268303
1242	0.416981
1254	0.482692
1266	0.523872
1278	0.342835
1290	0.18666
1302	0.134841
1314	0.0804854
1326	0.0345646
1338	0.0235944
1350	0.0226572
1362	0.0267917
1374	0.055568
1386	0.132084
1398	0.0893057
1410	0.0402978
1422	0.0772329
1434	0.127398
1446	0.0901878
1458	0.116538
1470	0.24074
1482	0.369186
1494	0.163066
1506	0.0395261
1518	0.0163727
1530	0.011301
1542	0.0138369
1554	0.0211688
1566	0.0384786
1578	0.106175
1590	0.144322
1602	0.0714446
1614	0.0232636
1626	0.0170342
1638	0.0188534
1650	0.0235944
1662	0.033848
1674	0.0441567
1686	0.0526463
1698	0.194653
1710	0.55127
1722	0.250552
1734	0.0868802
1746	0.0250277
1758	0.0216649
1770	0.0254687
1782	0.0238149
1794	0.0137266
1806	0.0101985
1818	0.00975748
1830	0.00887545
1842	0.00904083
1854	0.0075524
1866	0.00606397
1878	0.00589859
1890	0.00556783
1902	0.0055127
1914	0.00689088
1926	0.00799342
1938	0.00667037
1950	0.00716651
1962	0.00821392
1974	0.00826905
1986	0.00871007
1998	0.00937159
2010	0.0111357
2022	0.0106946
2034	0.0089857
2046	0.0061191
2058	0.00435503
2070	0.00413453
2082	0.00358326
2094	0.0028666
2106	0.00253584
2118	0.00237046
2130	0.00242559
2142	0.00341787
2154	0.003473
2166	0.0028666
2178	0.00231533
2190	0.00231533
2202	0.0014333
2214	0.00126792
2226	0.00137818
2238	0.00220508
2250	0.00170894
2262	0.00115767
2274	0.00115767
2286	0.00270122
2298	0.00363838
2310	0.00501656
2322	0.00556783
2334	0.00595372
2346	0.0055127
2358	0.00606397
2370	0.00529219
2382	0.003473
2394	0.00176406
2406	0.000882032
2418	0.000275635
2430	0.000330762
2442	0.000441016
2454	0.0014333
2466	0.0014333
2478	0.00192945
2490	0.00198457
2502	0.00259097
2514	0.00303199
2526	0.00325249
2538	0.00424478
2550	0.00474092
2562	0.00479605
2574	0.00380376
2586	0.00270122
2598	0.0020397
2610	0.00248072
2622	0.00248072
2634	0.00248072
2646	0.00303199
2658	0.00325249
2670	0.00319737
2682	0.00413453
2694	0.00689088
2706	0.0176958
2718	0.0281699
2730	0.0191842
2742	0.0282802
2754	0.0228777
2766	0.0110805
2778	0.00992286
2790	0.0114664
2802	0.0185227
2814	0.0276738
2826	0.0450388
2838	0.105127
2850	0.151599
2862	0.12591
2874	0.0727125
2886	0.0544655
2898	0.0520399
2910	0.0588205
2922	0.0692946
2934	0.0950941
2946	0.149504
2958	0.129493
2970	0.092007
2982	0.0735394
2994	0.0674203
3006	0.0891404
3018	0.0734843
3030	0.0388094
3042	0.0301545
3054	0.0276186
3066	0.0325249
3078	0.0449285
3090	0.0358326
3102	0.0157663
3114	0.00749727
3126	0.00512681
3138	0.00418965
3150	0.00396914
3162	0.00330762
3174	0.00281148
3186	0.00192945
3198	0.00170894
3210	0.0014333
3222	0.000937159
3234	0.00110254
3246	0.00126792
3258	0.00170894
3270	0.00110254
3282	0.00165381
3294	0.0014333
3306	0.00181919
3318	0.00176406
3330	0.00137818
3342	0.0020397
3354	0.0020397
3366	0.00292173
3378	0.00446529
3390	0.00689088
3402	0.00909596
3414	0.00457554
3426	0.00292173
3438	0.00220508
3450	0.00121279
3462	0.00148843
3474	0.00110254
3486	0.000385889
3498	0.000441016
3510	0.00126792
3522	0.00126792
3534	0.00137818
3546	0.000606397
3558	0.00154356
3570	0.00292173
3582	0.0026461
3594	0.00170894
3606	0.00126792
3618	0.00110254
3630	0.00104741
3642	0.00237046
3654	0.00292173
3666	0.00187432
3678	0.00126792
3690	0.000937159
3702	0.00209483
3714	0.00170894
3726	0.00214995
3738	0.00170894
3750	0.00176406
3762	0.00231533
3774	0.00220508
3786	0.00259097
3798	0.00270122
3810	0.003473
3822	0.00352813
3834	0.00352813
3846	0.00352813
3858	0.00341787
3870	0.00363838
3882	0.00418965
3894	0.00463067
3906	0.00380376
3918	0.00380376
3930	0.00336275
3942	0.00391402
3954	0.000165381
3966	0.000496143
