Infrared Spectrum: Naphthalene, 1-(chloromethyl)-
Formula: C 11 H 9 Cl
CAS: 86-52-2
Origin: Sadtler Research Labs Under US-EPA Contract
1/CM	ABSORBANCE
450	0
462	0.0175286
474	0.0342684
486	0.0610872
498	0.0299739
510	0.0261176
522	0.0352325
534	0.0830856
546	0.0496936
558	0.0177915
570	0.0274323
582	0.0977219
594	0.0374236
606	0.016214
618	0.0567927
630	0.0897464
642	0.0177039
654	0.0117442
666	0.0111307
678	0.0177915
690	0.0463631
702	0.0757236
714	0.176162
726	0.1688
738	0.154515
750	0.096232
762	0.296409
774	0.87643
786	0.386769
798	0.206575
810	0.072919
822	0.0237513
834	0.0170027
846	0.0226995
858	0.0420686
870	0.0615254
882	0.0267311
894	0.0168275
906	0.0153375
918	0.0134094
930	0.0138476
942	0.0201579
954	0.0198073
966	0.0243648
978	0.0165645
990	0.014987
1002	0.0205961
1014	0.045662
1026	0.0357583
1038	0.0267311
1050	0.0236636
1062	0.0106048
1074	0.0203332
1086	0.0188432
1098	0.00929016
1110	0.0106048
1122	0.0139352
1134	0.0276075
1146	0.0347943
1158	0.0298863
1170	0.0624895
1182	0.0304998
1194	0.0216478
1206	0.0418934
1218	0.051797
1230	0.0275199
1242	0.0605613
1254	0.16994
1266	0.159686
1278	0.127082
1290	0.0523229
1302	0.0243648
1314	0.0202455
1326	0.0187556
1338	0.0241018
1350	0.0375988
1362	0.0312886
1374	0.025767
1386	0.0265558
1398	0.0451361
1410	0.0275199
1422	0.0216478
1434	0.0307627
1446	0.0461879
1458	0.0825597
1470	0.0385629
1482	0.0180545
1494	0.0258547
1506	0.0762494
1518	0.0849261
1530	0.0279581
1542	0.0128835
1554	0.0141105
1566	0.0142858
1578	0.0180545
1590	0.0251535
1602	0.0374236
1614	0.0187556
1626	0.020859
1638	0.0203332
1650	0.0168275
1662	0.0187556
1674	0.0232254
1686	0.0237513
1698	0.0288345
1710	0.0253288
1722	0.0270817
1734	0.0232254
1746	0.0238389
1758	0.02454
1770	0.02454
1782	0.0197197
1794	0.0254165
1806	0.0339178
1818	0.0276075
1830	0.02454
1842	0.019895
1854	0.021122
1866	0.0276075
1878	0.0210343
1890	0.0192815
1902	0.0217355
1914	0.0328661
1926	0.0373359
1938	0.0365471
1950	0.0275199
1962	0.0151622
1974	0.0133217
1986	0.0129712
1998	0.0127959
2010	0.0140229
2022	0.0148117
2034	0.0166522
2046	0.0178792
2058	0.0193691
2070	0.0191062
2082	0.0164769
2094	0.0141982
2106	0.0143735
2118	0.0144611
2130	0.0138476
2142	0.0138476
2154	0.0148993
2166	0.0141105
2178	0.0143735
2190	0.0141105
2202	0.0140229
2214	0.014987
2226	0.0142858
2238	0.0148993
2250	0.0161263
2262	0.015951
2274	0.0150746
2286	0.0170027
2298	0.0182297
2310	0.0212972
2322	0.0212972
2334	0.0181421
2346	0.0156881
2358	0.0212096
2370	0.0121824
2382	0.0129712
2394	0.0146364
2406	0.0160387
2418	0.0169151
2430	0.0164769
2442	0.0156881
2454	0.0156881
2466	0.0155128
2478	0.0160387
2490	0.0163892
2502	0.0156881
2514	0.0172657
2526	0.015951
2538	0.0160387
2550	0.0158634
2562	0.0160387
2574	0.0150746
2586	0.0163016
2598	0.0156881
2610	0.0141982
2622	0.01227
2634	0.0131465
2646	0.0140229
2658	0.0109554
2670	0.0118318
2682	0.0170027
2694	0.0184927
2706	0.0194567
2718	0.019895
2730	0.0194567
2742	0.017441
2754	0.0169151
2766	0.0154252
2778	0.0160387
2790	0.017178
2802	0.0178792
2814	0.0195444
2826	0.0203332
2838	0.0215602
2850	0.0226119
2862	0.0243648
2874	0.0250659
2886	0.0320773
2898	0.0322526
2910	0.029711
2922	0.0277828
2934	0.0314638
2946	0.0402281
2958	0.0565297
2970	0.0915869
2982	0.107538
2994	0.0615254
3006	0.0766876
3018	0.0946544
3030	0.0929016
3042	0.142332
3054	0.259511
3066	0.31271
3078	0.272833
3090	0.153638
3102	0.0958814
3114	0.0504824
3126	0.0239265
3138	0.0221737
3150	0.0194567
3162	0.0205961
3174	0.0205961
3186	0.0219107
3198	0.0189309
3210	0.0169151
3222	0.0190185
3234	0.0166522
3246	0.0170904
3258	0.0170904
3270	0.0177039
3282	0.0179668
3294	0.0163016
3306	0.0181421
3318	0.0178792
3330	0.0173533
3342	0.0173533
3354	0.0188432
3366	0.0197197
3378	0.0190185
3390	0.0193691
3402	0.0176162
3414	0.0176162
3426	0.0175286
3438	0.015951
3450	0.0158634
3462	0.0178792
3474	0.0170027
3486	0.0177039
3498	0.0151622
3510	0.0182297
3522	0.0168275
3534	0.0160387
3546	0.0169151
3558	0.0163016
3570	0.0148117
3582	0.016214
3594	0.0167398
3606	0.0169151
3618	0.0160387
3630	0.0139352
3642	0.0121824
3654	0.0111307
3666	0.0126206
3678	0.0153375
3690	0.0120071
3702	0.0155128
3714	0.0114812
3726	0.00929016
3738	0.0106924
3750	0.0107801
3762	0.0120071
3774	0.00929016
3786	0.0093778
3798	0.0120071
3810	0.00972837
3822	0.00929016
3834	0.0106048
3846	0.0113936
3858	0.0115689
3870	0.0154252
3882	0.015951
3894	0.014987
3906	0.00990366
3918	0.0100789
3930	0.0193691
3942	0.0129712
3954	0.0180545
3966	0.0131465
