Infrared Spectrum: 1-Naphthalenecarboxylic acid
Formula: C 11 H 8 O 2
CAS: 86-55-5
Origin: Sadtler Research Labs Under US-EPA Contract
1/CM	ABSORBANCE
450	0
462	0.00371806
474	0.0386879
486	0.0279859
498	0.0345176
510	0.0167815
522	0.0414011
534	0.0464757
546	0.0678294
558	0.0788328
570	0.121791
582	0.0935543
594	0.0599913
606	0.0319049
618	0.0618001
630	0.184496
642	0.0472796
654	0.0172839
666	0.0372308
678	0.029443
690	0.0286391
702	0.0734567
714	0.0649152
726	0.0292923
738	0.0282874
750	0.0356732
762	0.0715977
774	0.206151
786	0.194846
798	0.0722006
810	0.0410493
822	0.0322566
834	0.0179874
846	0.0276844
858	0.018942
870	0.0223586
882	0.0186908
894	0.025122
906	0.0180878
918	0.0208513
930	0.0194947
942	0.0194947
954	0.0212532
966	0.0268303
978	0.0489879
990	0.0739592
1002	0.0323571
1014	0.0343167
1026	0.025323
1038	0.0298952
1050	0.0341157
1062	0.0664226
1074	0.0698894
1086	0.0700904
1098	0.0974734
1110	0.369042
1122	0.38296
1134	0.119179
1146	0.079888
1158	0.105663
1170	0.215748
1182	0.161032
1194	0.0819982
1206	0.0711957
1218	0.0821489
1230	0.0596396
1242	0.0432601
1254	0.0498923
1266	0.0467269
1278	0.0462245
1290	0.0552684
1302	0.0712962
1314	0.0911929
1326	0.0913938
1338	0.0903387
1350	0.0997846
1362	0.0833046
1374	0.0492894
1386	0.031503
1398	0.0312518
1410	0.0271318
1422	0.0225596
1434	0.0276844
1446	0.0285888
1458	0.0305484
1470	0.0259259
1482	0.0245191
1494	0.0259259
1506	0.066724
1518	0.0594889
1530	0.031503
1542	0.0436118
1554	0.0616494
1566	0.0338645
1578	0.0405972
1590	0.0390396
1602	0.0317542
1614	0.023263
1626	0.0268805
1638	0.02266
1650	0.0226098
1662	0.0202483
1674	0.025323
1686	0.0309503
1698	0.0431094
1710	0.0559216
1722	0.0782299
1734	0.10717
1746	0.356531
1758	0.49209
1770	0.18731
1782	0.0994831
1794	0.071246
1806	0.0327088
1818	0.0260766
1830	0.0219566
1842	0.0183893
1854	0.0158269
1866	0.0133147
1878	0.0157766
1890	0.01442
1902	0.0137669
1914	0.0133147
1926	0.0172337
1938	0.0163795
1950	0.0173342
1962	0.0133649
1974	0.0131639
1986	0.00899368
1998	0.0101995
2010	0.00773758
2022	0.0103503
2034	0.00813953
2046	0.010501
2058	0.00844099
2070	0.00939563
2082	0.00929514
2094	0.0117571
2106	0.0087927
2118	0.00874246
2130	0.0079888
2142	0.010702
2154	0.00899368
2166	0.00869221
2178	0.00718489
2190	0.00889319
2202	0.00884294
2214	0.00803904
2226	0.00808928
2238	0.00859172
2250	0.00934538
2262	0.00874246
2274	0.00698392
2286	0.00864197
2298	0.00999856
2310	0.00914441
2322	0.00618001
2334	0.00291415
2346	0.00286391
2358	0.00557708
2370	0.0029644
2382	0.00477318
2394	0.00849124
2406	0.00808928
2418	0.00979758
2430	0.00723514
2442	0.00803904
2454	0.0062805
2466	0.0092449
2478	0.00643123
2490	0.0075366
2502	0.00492391
2514	0.00768733
2526	0.0054766
2538	0.0075366
2550	0.0042205
2562	0.00728538
2574	0.00522538
2586	0.00678294
2598	0.00517513
2610	0.00693367
2622	0.00482342
2634	0.00597904
2646	0.0042205
2658	0.00572782
2670	0.00442147
2682	0.00512489
2694	0.0045722
2706	0.00522538
2718	0.00557708
2730	0.00487367
2742	0.00572782
2754	0.00638099
2766	0.00653172
2778	0.00472294
2790	0.00592879
2802	0.00532586
2814	0.00733562
2826	0.00643123
2838	0.00693367
2850	0.00492391
2862	0.00944587
2874	0.00793855
2886	0.00934538
2898	0.00658196
2910	0.0109029
2922	0.00964685
2934	0.0148722
2946	0.00994831
2958	0.0121088
2970	0.00869221
2982	0.0121088
2994	0.00738587
3006	0.0130634
3018	0.0145708
3030	0.0214542
3042	0.0268805
3054	0.0611972
3066	0.0791343
3078	0.0505957
3090	0.0345679
3102	0.0330606
3114	0.014621
3126	0.0113551
3138	0.00984782
3150	0.00954636
3162	0.00557708
3174	0.00803904
3186	0.00954636
3198	0.00909416
3210	0.00829026
3222	0.00607952
3234	0.0092449
3246	0.00849124
3258	0.00884294
3270	0.00612977
3282	0.00768733
3294	0.00653172
3306	0.010099
3318	0.00492391
3330	0.0079888
3342	0.00618001
3354	0.00979758
3366	0.00512489
3378	0.00934538
3390	0.00567757
3402	0.00854148
3414	0.0054766
3426	0.00803904
3438	0.00562733
3450	0.00869221
3462	0.0054766
3474	0.00999856
3486	0.00884294
3498	0.0127117
3510	0.00587855
3522	0.00884294
3534	0.00653172
3546	0.0112044
3558	0.0313523
3570	0.106065
3582	0.171634
3594	0.0661211
3606	0.0120083
3618	0.00663221
3630	0.0070844
3642	0.00884294
3654	0.0087927
3666	0.00417025
3678	0.00467269
3690	0.00462245
3702	0.00783806
3714	0.00386879
3726	0.00391903
3738	0.00301464
3750	0.00703416
3762	0.00537611
3774	0.00527562
3786	0.00281366
3798	0.00683318
3810	0.00432098
3822	0.00587855
3834	0.00286391
3846	0.0042205
3858	0.00462245
3870	0.0104508
3882	0.00281366
3894	0.00286391
3906	0.00286391
3918	0.0058283
3930	0.00286391
3942	0.0037683
3954	0.00286391
3966	0.00286391
