Infrared Spectrum: 1-Naphthalenamine, N,N-dimethyl-
Formula: C 12 H 13 N
CAS: 86-56-6
Origin: Sadtler Research Labs Under US-EPA Contract
1/CM	ABSORBANCE
450	0.021785
462	0.0123448
474	0.00893744
486	0.0101105
498	0.0080437
510	0.00927259
522	0.0112835
534	0.0106132
546	0.00458044
558	0.022567
570	0.0395482
582	0.029717
594	0.00916088
606	0.0149144
618	0.00843471
630	0.0117862
642	0.0106691
654	0.0167018
666	0.00910502
678	0.0194948
690	0.0234608
702	0.0135179
714	0.0108366
726	0.022567
738	0.0174839
750	0.0411122
762	0.254605
774	0.55859
786	0.186848
798	0.162438
810	0.045972
822	0.0179307
834	0.0147468
846	0.0151378
858	0.0129034
870	0.0161991
882	0.0099429
894	0.0193272
906	0.0165901
918	0.0362525
930	0.114232
942	0.073678
954	0.022567
966	0.0247455
978	0.0167018
990	0.0204444
1002	0.0336271
1014	0.111271
1026	0.0741249
1038	0.125459
1050	0.141323
1062	0.0944017
1074	0.122052
1086	0.0733987
1098	0.0480946
1110	0.0407212
1122	0.021394
1134	0.0465305
1146	0.0932845
1158	0.0719464
1170	0.0517254
1182	0.0765268
1194	0.081219
1206	0.06893
1218	0.0599926
1230	0.0527868
1242	0.0379283
1254	0.0358615
1266	0.0337388
1278	0.0309459
1290	0.0518372
1302	0.12747
1314	0.0997642
1326	0.0458602
1338	0.0268682
1350	0.0245221
1362	0.0237959
1374	0.046363
1386	0.157187
1398	0.300242
1410	0.103451
1422	0.0585961
1434	0.0689859
1446	0.128867
1458	0.160595
1470	0.146742
1482	0.104289
1494	0.0672542
1506	0.089933
1518	0.0673101
1530	0.0353587
1542	0.0207795
1554	0.0202768
1566	0.0754097
1578	0.208913
1590	0.152719
1602	0.0659136
1614	0.0294377
1626	0.0275385
1638	0.0160874
1650	0.0173721
1662	0.0154171
1674	0.0132386
1686	0.015864
1698	0.0136855
1710	0.0132944
1722	0.017428
1734	0.0124007
1746	0.016255
1758	0.0134062
1770	0.0173163
1782	0.00971947
1794	0.0068148
1806	0.0103898
1818	0.0129593
1830	0.0159757
1842	0.0196624
1854	0.00860229
1866	0.00854643
1878	0.00720581
1890	0.0080437
1902	0.0176514
1914	0.022958
1926	0.0140765
1938	0.0110042
1950	0.0110601
1962	0.00664722
1974	0.00357498
1986	0.00580934
1998	0.00418943
2010	0.00346326
2022	0.00284881
2034	0.00446872
2046	0.00184335
2058	0.00273709
2070	0.00201092
2082	0.00413357
2094	0.00296053
2106	0.00391013
2118	0.00301639
2130	0.00346326
2142	0.00329568
2154	0.00391013
2166	0.00173163
2178	0.00150819
2190	0.00100546
2202	0.0021785
2214	0.00139648
2226	0.00223436
2238	0.00234608
2250	0.00223436
2262	0.00167577
2274	0.0024578
2286	0.00323982
2298	0.00307224
2310	0.00189921
2322	0.00106132
2334	0.000837885
2346	0.000391013
2358	0.000446872
2370	0.00167577
2382	0.00156405
2394	0.00167577
2406	0.00335154
2418	0.0034074
2430	0.00240194
2442	0.00195507
2454	0.00346326
2466	0.00234608
2478	0.00363084
2490	0.00391013
2502	0.00536246
2514	0.00368669
2526	0.00391013
2538	0.00424528
2550	0.00402185
2562	0.00284881
2574	0.00402185
2586	0.00446872
2598	0.00536246
2610	0.00502731
2622	0.00687066
2634	0.00564176
2646	0.00748511
2658	0.00608863
2670	0.00754097
2682	0.00592105
2694	0.0080437
2706	0.00876986
2718	0.0111718
2730	0.0116187
2742	0.0168136
2754	0.0270916
2766	0.0555238
2778	0.12775
2790	0.243657
2802	0.201539
2814	0.0988704
2826	0.142217
2838	0.258627
2850	0.151378
2862	0.125124
2874	0.13691
2886	0.110489
2898	0.102892
2910	0.0979767
2922	0.100155
2934	0.159477
2946	0.293092
2958	0.207907
2970	0.0880896
2982	0.117695
2994	0.141212
3006	0.0782585
3018	0.0512227
3030	0.0499379
3042	0.0974181
3054	0.244774
3066	0.252539
3078	0.143334
3090	0.111662
3102	0.0630648
3114	0.0191596
3126	0.00932845
3138	0.0077644
3150	0.00603277
3162	0.00714995
3174	0.00782026
3186	0.0068148
3198	0.0046363
3210	0.00664722
3222	0.00625621
3234	0.00430114
3246	0.00357498
3258	0.00525075
3270	0.0021785
3282	0.00273709
3294	0.00284881
3306	0.00385427
3318	0.0012289
3330	0.00296053
3342	0.00335154
3354	0.00290467
3366	0.00189921
3378	0.00418943
3390	0.00240194
3402	0.00273709
3414	0.00150819
3426	0.00418943
3438	0.0021785
3450	0.00335154
3462	0.00161991
3474	0.00480387
3486	0.00134062
3498	0.00268123
3510	0.00212264
3522	0.00385427
3534	0.00212264
3546	0.00307224
3558	0.00251366
3570	0.0024578
3582	0.00240194
3594	0.00485973
3606	0.00268123
3618	0.00323982
3630	0.000670308
3642	0.00458044
3654	0.00189921
3666	0.00329568
3678	0.000949603
3690	0.00363084
3702	0.00268123
3714	0.00329568
3726	0.00346326
3738	0.00256951
3750	0.00184335
3762	0.00446872
3774	0.00491559
3786	0.00569762
3798	0.00469216
3810	0.00564176
3822	0.00396599
3834	0.00441286
3846	0.00759682
3858	0.00580934
3870	0.0053066
3882	0.00485973
3894	0.00748511
3906	0.00575348
3918	0.0055859
3930	0.00575348
3942	0.00754097
3954	0
3966	0.000391013
