Infrared Spectrum: 1-Naphthalenecarbonitrile
Formula: C 11 H 7 N
CAS: 86-53-3
Origin: Sadtler Research Labs Under US-EPA Contract
1/CM	ABSORBANCE
450	0.0713919
462	0.0591371
474	0.0165282
486	0.0233155
498	0.0298514
510	0.0272747
522	0.0252637
534	0.0197333
546	0.00992951
558	0.0163397
570	0.0356331
582	0.00823269
594	0.00892399
606	0.00276518
618	0.000188535
630	0.0030794
642	0.00169681
654	0.00169681
666	0.00515329
678	0.0186021
690	0.039341
702	0.0101809
714	0.00421062
726	0.0177851
738	0.0216187
750	0.0447456
762	0.30926
774	0.529218
786	0.293109
798	0.5898
810	0.220083
822	0.0298514
834	0.0216187
846	0.0339991
858	0.0576917
870	0.0406607
882	0.0239439
894	0.0219329
906	0.0144543
918	0.00641019
930	0.0132603
942	0.0118149
954	0.0141401
966	0.017848
978	0.00892399
990	0.00653588
1002	0.0295371
1014	0.042986
1026	0.0218072
1038	0.00722717
1050	0.0030794
1062	0.0184764
1074	0.031611
1086	0.0422947
1098	0.027149
1110	0.0115006
1122	0.00590743
1134	0.0124433
1146	0.0274004
1158	0.0241325
1170	0.0138887
1182	0.00446199
1194	0.00509044
1206	0.0253894
1218	0.0285945
1230	0.0187907
1242	0.00948959
1254	0.0126318
1266	0.0397809
1278	0.0367015
1290	0.0109979
1302	0.00892399
1314	0.00974098
1326	0.0204875
1338	0.0444943
1350	0.0250752
1362	0.0274633
1374	0.061211
1386	0.0460654
1398	0.045814
1410	0.010118
1422	0.00427346
1434	0.00534182
1446	0.00301656
1458	0.00087983
1470	0.0030794
1482	0.00992951
1494	0.0360102
1506	0.0767337
1518	0.0696323
1530	0.0230013
1542	0.00779278
1554	0.00245095
1566	0.00439915
1578	0.014203
1590	0.0433002
1602	0.032051
1614	0.00534182
1626	0.00810701
1638	0.0108722
1650	0.00816985
1662	0.0062845
1674	0.00483907
1686	0.00842123
1698	0.0140144
1710	0.0199219
1722	0.0169682
1734	0.00697579
1746	0.00986667
1758	0.00936391
1770	0.00955244
1782	0.00779278
1794	0.00175966
1806	0.0138887
1818	0.0281546
1830	0.0248238
1842	0.0132603
1854	0.00458769
1866	0.00873545
1878	0.017031
1890	0.0108722
1902	0.00578174
1914	0.0127575
1926	0.0282802
1938	0.0284059
1950	0.022687
1962	0.0143287
1974	0.00276518
1986	0.00106836
1998	0.000188535
2010	0.00037707
2022	0.000565605
2034	0.000691295
2046	0.00087983
2058	0.00131974
2070	0.0012569
2082	0.000439915
2094	0.00037707
2106	0.00012569
2118	0
2130	6.2845e-05
2142	6.2845e-05
2154	0.00025138
2166	0.000565605
2178	0.00131974
2190	0.0012569
2202	0.00351932
2214	0.0210531
2226	0.0710777
2238	0.0578802
2250	0.0157741
2262	0.00798131
2274	0.00395924
2286	0.00496475
2298	0.00772994
2310	0.00810701
2322	0.00565605
2334	0.00245095
2346	0.00276518
2358	0.00169681
2370	0.00144543
2382	0.00326794
2394	0.00119406
2406	0.00163397
2418	0.00188535
2430	0.0012569
2442	0.00131974
2454	0.00119406
2466	0.00087983
2478	0.000439915
2490	0.000188535
2502	6.2845e-05
2514	0.00025138
2526	0.00050276
2538	0.00087983
2550	0.000439915
2562	0.00037707
2574	0.00050276
2586	0.00075414
2598	0.000816985
2610	0.00113121
2622	0.00144543
2634	0.00144543
2646	0.00163397
2658	0.00245095
2670	0.00213673
2682	0.0012569
2694	0.00087983
2706	0.00100552
2718	0.00100552
2730	0.00100552
2742	0.0012569
2754	0.00106836
2766	0.00138259
2778	0.00169681
2790	0.0025138
2802	0.00295371
2814	0.00370785
2826	0.00333078
2838	0.00527898
2850	0.0119405
2862	0.0108093
2874	0.00647304
2886	0.00766709
2898	0.0108093
2910	0.0157112
2922	0.0269605
2934	0.0244467
2946	0.0171567
2958	0.016214
2970	0.0113121
2982	0.00810701
2994	0.0100552
3006	0.0192306
3018	0.0241953
3030	0.031611
3042	0.0589486
3054	0.14932
3066	0.285819
3078	0.21581
3090	0.101432
3102	0.0828297
3114	0.0319253
3126	0.00597027
3138	0.00427346
3150	0.00389639
3162	0.00496475
3174	0.00584459
3186	0.0043363
3198	0.00333078
3210	0.00333078
3222	0.00320509
3234	0.00245095
3246	0.00270234
3258	0.00245095
3270	0.0019482
3282	0.00113121
3294	0.00119406
3306	0.00100552
3318	0.000439915
3330	0.00075414
3342	0.00087983
3354	0.00025138
3366	0.000439915
3378	0.00100552
3390	0.00075414
3402	0.00144543
3414	0.00062845
3426	0.00113121
3438	0.00163397
3450	0.0019482
3462	0.00213673
3474	0.00175966
3486	0.00119406
3498	0.00201104
3510	0.00175966
3522	0.00113121
3534	0.00144543
3546	0.0018225
3558	0.00163397
3570	0.00188535
3582	0.00232526
3594	0.00201104
3606	0.00276518
3618	0.0025138
3630	0.00163397
3642	0.00226242
3654	0.00207389
3666	0.00131974
3678	0.00169681
3690	0.00226242
3702	0.00226242
3714	0.0025138
3726	0.00201104
3738	0.0012569
3750	0.00257664
3762	0.00326794
3774	0.00276518
3786	0.00276518
3798	0.00207389
3810	0.00427346
3822	0.00289087
3834	0.00351932
3846	0.0037707
3858	0.0055932
3870	0.00672442
3882	0.00427346
3894	0.0030794
3906	0.00314225
3918	0.00370785
3930	0.00383354
3942	0.00263949
3954	0.00150828
3966	0.00087983
