Infrared Spectrum: Carbazole
Formula: C 12 H 9 N
CAS: 86-74-8
Origin: Sadtler Research Labs Under US-EPA Contract
1/CM	ABSORBANCE
450	0.00130983
462	0.0309233
474	0.0203877
486	0.0187932
498	0.0383267
510	0.041345
522	0.0210142
534	0.0214698
546	0.0292718
558	0.0593978
570	0.0486344
582	0.0275633
594	0.0206155
606	0.0219823
618	0.0615619
630	0.0404907
642	0.0432812
654	0.0300691
666	0.0239186
678	0.041345
690	0.058031
702	0.0978953
714	0.299267
726	0.513054
738	0.386228
750	0.442835
762	0.161963
774	0.04573
786	0.0349667
798	0.0216406
810	0.0126996
822	0.0161735
834	0.036903
846	0.0289301
858	0.0330304
870	0.029044
882	0.0235199
894	0.0240894
906	0.0217545
918	0.0269369
930	0.0258548
942	0.0198183
954	0.0184515
966	0.0171416
978	0.0189071
990	0.0273355
1002	0.0715849
1014	0.0414589
1026	0.00842845
1038	0.00142373
1050	0.00842845
1062	0.00831455
1074	0.00523931
1086	0.00444202
1098	0.0120162
1110	0.0390101
1122	0.0902072
1134	0.0219254
1146	0.0459578
1158	0.0515958
1170	0.0186223
1182	0.0277911
1194	0.0366752
1206	0.044705
1218	0.111791
1230	0.569091
1242	0.332013
1254	0.0452175
1266	0.0295565
1278	0.0330874
1290	0.0318914
1302	0.0366752
1314	0.234231
1326	0.299893
1338	0.105526
1350	0.0597395
1362	0.037985
1374	0.0509124
1386	0.125629
1398	0.0638398
1410	0.0233491
1422	0.0212989
1434	0.0487483
1446	0.175004
1458	0.312081
1470	0.186565
1482	0.10359
1494	0.256612
1506	0.0921435
1518	0.0273355
1530	0.0187932
1542	0.019021
1554	0.0239186
1566	0.0358209
1578	0.0639537
1590	0.0776215
1602	0.116575
1614	0.15137
1626	0.0481219
1638	0.0377002
1650	0.037928
1662	0.0255701
1674	0.0222101
1686	0.0211281
1698	0.013383
1710	0.011219
1722	0.0128705
1734	0.0130413
1746	0.0150345
1758	0.0263104
1770	0.0235199
1782	0.012301
1794	0.0203877
1806	0.0164583
1818	0.00905489
1830	0.00985218
1842	0.0202169
1854	0.0202169
1866	0.0144081
1878	0.0313789
1890	0.0261965
1902	0.0134969
1914	0.0353084
1926	0.0277911
1938	0.00780201
1950	0.00768811
1962	0.00763117
1974	0.00671998
1986	0.00626439
1998	0.0056949
2010	0.0059227
2022	0.00597964
2034	0.0058088
2046	0.005581
2058	0.00535321
2070	0.00523931
2082	0.005581
2094	0.00615049
2106	0.00700473
2118	0.00768811
2130	0.00637829
2142	0.00541015
2154	0.00461287
2166	0.00489761
2178	0.00501151
2190	0.00484067
2202	0.00529626
2214	0.0054671
2226	0.00615049
2238	0.00552405
2250	0.00552405
2262	0.005581
2274	0.00501151
2286	0.00438507
2298	0.00472677
2310	0.00535321
2322	0.00501151
2334	0.0058088
2346	0.00375863
2358	0.00421423
2370	0.00392948
2382	0.00398643
2394	0.00387253
2406	0.00313219
2418	0.00387253
2430	0.00518236
2442	0.00461287
2454	0.00518236
2466	0.00820066
2478	0.00877015
2490	0.0107064
2502	0.00757422
2514	0.00335999
2526	0.00358779
2538	0.00518236
2550	0.00506846
2562	0.00415728
2574	0.00358779
2586	0.0056949
2598	0.00877015
2610	0.00700473
2622	0.00432812
2634	0.0054671
2646	0.00660608
2658	0.00734642
2670	0.00637829
2682	0.0026766
2694	0.00165152
2706	0.00392948
2718	0.00341694
2730	0.00159457
2742	0.000341694
2754	0.000740337
2766	0.0030183
2778	0.0030183
2790	0.00330304
2802	0.0029044
2814	0.00370169
2826	0.00364474
2838	0.00227796
2850	0.00165152
2862	0.00153762
2874	0.00170847
2886	0.00113898
2898	0.00239186
2910	0.00484067
2922	0.00472677
2934	0.00603659
2946	0.00706168
2958	0.00353084
2970	0.00130983
2982	0.00330304
2994	0.00387253
3006	0.0101939
3018	0.0394657
3030	0.0854804
3042	0.109399
3054	0.149776
3066	0.263332
3078	0.276203
3090	0.107349
3102	0.0506277
3114	0.0155471
3126	0.00632134
3138	0.00415728
3150	0.00529626
3162	0.0058088
3174	0.00370169
3186	0.00335999
3198	0.00233491
3210	0.00244881
3222	0.00307525
3234	0.00387253
3246	0.00375863
3258	0.00165152
3270	0.000968133
3282	0.00125288
3294	0.000227796
3306	0.00108203
3318	0.00125288
3330	0.00108203
3342	0.00119593
3354	0.000911184
3366	0.000170847
3378	0.000683388
3390	0.00119593
3402	0.00307525
3414	0.00347389
3426	0.00455592
3438	0.00575185
3450	0.00791591
3462	0.0141803
3474	0.0361626
3486	0.0869611
3498	0.137646
3510	0.132179
3522	0.0661178
3534	0.0177681
3546	0.00996607
3558	0.00683388
3570	0.00347389
3582	0.00273355
3594	0.00324609
3606	0.00187932
3618	0.00370169
3630	0.00501151
3642	0.00335999
3654	0.00375863
3666	0.00313219
3678	0.00461287
3690	0.00421423
3702	0.0026766
3714	0.00415728
3726	0.00358779
3738	0.00273355
3750	0.00432812
3762	0.00318914
3774	0.00478372
3786	0.00444202
3798	0.00506846
3810	0.00438507
3822	0.00512541
3834	0.00643524
3846	0.00427118
3858	0.00472677
3870	0.00404338
3882	0.00438507
3894	0.00478372
3906	0.00461287
3918	0.00563795
3930	0.00780201
3942	0.00671998
3954	0.0058088
3966	0.00660608
