Infrared Spectrum: Quinoline, 4,7-dichloro-
Formula: C 9 H 5 Cl 2 N
CAS: 86-98-6
Origin: Sadtler Research Labs Under US-EPA Contract
1/CM	ABSORBANCE
450	0.0359126
462	0.0323314
474	0.0125593
486	0.00559873
498	0.0138203
510	0.00585092
522	0.00635531
534	0.00131141
546	0.00978517
558	0.00756585
570	0.00610312
582	0.00272371
594	0.00201756
606	0.00670839
618	0.151569
630	0.128619
642	0.0354586
654	0.0103904
666	0.0205287
678	0.142036
690	0.0386867
702	0.00691014
714	0.00842331
726	0.0068597
738	0.00701102
750	0.0100374
762	0.0331384
774	0.023555
786	0.0221932
798	0.0550289
810	0.210684
822	0.417383
834	0.266116
846	0.0609303
858	0.0209826
870	0.0699589
882	0.336125
894	0.216484
906	0.023555
918	0.0197216
930	0.00943209
942	0.0100878
954	0.0278423
966	0.115556
978	0.227732
990	0.0290529
1002	0.0293051
1014	0.0218401
1026	0.0221427
1038	0.0217392
1050	0.0422679
1062	0.144256
1074	0.377385
1086	0.106729
1098	0.0199234
1110	0.0136185
1122	0.00907902
1134	0.0133159
1146	0.0484719
1158	0.0131646
1170	0.0286494
1182	0.0892266
1194	0.0423183
1206	0.0273379
1218	0.0175528
1230	0.0106426
1242	0.0143751
1254	0.0209826
1266	0.0403512
1278	0.0520026
1290	0.191113
1302	0.0295573
1314	0.0106931
1326	0.0311713
1338	0.139968
1350	0.0502877
1362	0.0873099
1374	0.0926564
1386	0.0622922
1398	0.0891762
1410	0.209574
1422	0.151569
1434	0.0577527
1446	0.0592658
1458	0.0513973
1470	0.0514478
1482	0.271059
1494	0.254919
1506	0.039292
1518	0.0295068
1530	0.0383841
1542	0.152275
1554	0.50439
1566	0.151973
1578	0.162868
1590	0.186423
1602	0.298902
1614	0.404975
1626	0.0684962
1638	0.0436297
1650	0.0325332
1662	0.0365178
1674	0.0192173
1686	0.0172501
1698	0.019873
1710	0.0134168
1722	0.0182085
1734	0.0153839
1746	0.00948253
1758	0.0166449
1770	0.0297086
1782	0.0155857
1794	0.00958341
1806	0.00474127
1818	0.00554829
1830	0.00575005
1842	0.00564917
1854	0.0052961
1866	0.00499346
1878	0.004136
1890	0.00670839
1902	0.0218401
1914	0.0313226
1926	0.00938165
1938	0.00237063
1950	0.00302634
1962	0.00458995
1974	0.00307678
1986	0.00221932
1998	0.00191668
2010	0.00201756
2022	0.00267327
2034	0.00277414
2046	0.00216888
2058	0.0011601
2070	0.00221932
2082	0.00176537
2094	0.00282458
2106	0.00216888
2118	0.00332897
2130	0.00247151
2142	0.0029759
2154	0.00166449
2166	0.00186624
2178	0.00110966
2190	0.00156361
2202	0.000958341
2214	0.00110966
2226	0.00151317
2238	0.00272371
2250	0.00232019
2262	0.00277414
2274	0.00287502
2286	0.00534653
2298	0.00953297
2310	0.0122567
2322	0.012408
2334	0.014476
2346	0.0135681
2358	0.0133663
2370	0.0125593
2382	0.00665795
2394	0.00186624
2406	0.00196712
2418	0.002068
2430	0.00232019
2442	0.00211844
2454	0.0011601
2466	0.00221932
2478	0.0038838
2490	0.00292546
2502	0.00186624
2514	0.00342985
2526	0.00393424
2538	0.00257239
2550	0.00277414
2562	0.00211844
2574	0.00221932
2586	0.00216888
2598	0.000958341
2610	0.00272371
2622	0.00287502
2634	0.00348029
2646	0.00146273
2658	0.00191668
2670	0.00100878
2682	0.000605268
2694	0.00100878
2706	0.00110966
2718	0.000857463
2730	0.00176537
2742	0.00191668
2754	0.0018158
2766	0.000958341
2778	0.00191668
2790	0.00161405
2802	0.00110966
2814	0.00191668
2826	0.00232019
2838	0.00257239
2850	0.00342985
2862	0.00489258
2874	0.00337941
2886	0.00317766
2898	0.00262283
2910	0.002068
2922	0.00342985
2934	0.00342985
2946	0.00327854
2958	0.00499346
2970	0.00852419
2982	0.0122062
2994	0.00983561
3006	0.0134672
3018	0.0205791
3030	0.0306669
3042	0.0663777
3054	0.062847
3066	0.0358621
3078	0.0241098
3090	0.0249169
3102	0.00998692
3114	0.00262283
3126	0.00262283
3138	0.00383336
3150	0.00342985
3162	0.00368205
3174	0.00186624
3186	0.00131141
3198	0.000605268
3210	0.00156361
3222	0.00126098
3234	0.00151317
3246	0.00247151
3258	0.00232019
3270	0.000857463
3282	0.0011601
3294	0.00221932
3306	0.00131141
3318	0.00136185
3330	0.00151317
3342	0.00105922
3354	0.00196712
3366	0.00201756
3378	0.00242107
3390	0.00156361
3402	0.00211844
3414	0.00191668
3426	0.0018158
3438	0.00171493
3450	0.00136185
3462	0.000706146
3474	0.00151317
3486	0.00232019
3498	0.00176537
3510	0.002068
3522	0.00176537
3534	0.00141229
3546	0.00337941
3558	0.00448907
3570	0.0052961
3582	0.00453951
3594	0.00287502
3606	0.00368205
3618	0.00590136
3630	0.00605268
3642	0.0038838
3654	0.00701102
3666	0.00257239
3678	0.00817112
3690	0.00877639
3702	0.00756585
3714	0.00897814
3726	0.00912946
3738	0.0121054
3750	0.0100374
3762	0.00968429
3774	0.00766673
3786	0.0100878
3798	0.0112983
3810	0.0112983
3822	0.0128619
3834	0.0105922
3846	0.0108948
3858	0.0142238
3870	0.0148291
3882	0.0125089
3894	0.0119036
3906	0.0122062
3918	0.0119036
3930	0.0130637
3942	0.0128619
3954	0.00469083
3966	0.00549785
