Infrared Spectrum: Phosphonic acid, dimethyl ester
Formula: C 2 H 7 O 3 P
CAS: 868-85-9
Origin: Sadtler Research Labs Under US-EPA Contract
1/CM	ABSORBANCE
450	0.0189606
462	0.0161723
474	0.0206336
486	0.0129378
498	0.0180683
510	0.0255411
522	0.0352444
534	0.0616777
546	0.0886687
558	0.082869
570	0.0488515
582	0.0180683
594	0.00747271
606	0.00379212
618	0.00368059
630	0.00200759
642	0.00256526
654	0.00256526
666	0.00401519
678	0.00390366
690	0.00669198
702	0.00591125
714	0.00702658
726	0.0105956
738	0.0218605
750	0.0600048
762	0.111645
774	0.132724
786	0.0886687
798	0.080973
810	0.169196
822	0.190944
834	0.119563
846	0.0499668
858	0.0333484
870	0.0220835
882	0.0198529
894	0.0201875
906	0.0196298
918	0.0210797
930	0.0276602
942	0.0428287
954	0.0832036
966	0.263887
978	0.788538
990	1.11533
1002	0.589006
1014	0.292886
1026	0.239796
1038	0.315415
1050	0.505356
1062	0.678455
1074	0.664179
1086	0.480819
1098	0.356794
1110	0.257195
1122	0.181464
1134	0.127036
1146	0.0925724
1158	0.077627
1170	0.098149
1182	0.128374
1194	0.127371
1206	0.0923493
1218	0.070935
1230	0.0644661
1242	0.0632392
1254	0.0884457
1266	0.201317
1278	0.400627
1290	0.492084
1302	0.420479
1314	0.238792
1326	0.118448
1338	0.0385904
1350	0.0229758
1362	0.023645
1374	0.0213028
1386	0.0191837
1398	0.0201875
1410	0.0181799
1422	0.016953
1434	0.020299
1446	0.03201
1458	0.0480707
1470	0.0451709
1482	0.035356
1494	0.0265449
1506	0.0191837
1518	0.0175107
1530	0.0179568
1542	0.0159492
1554	0.0170645
1566	0.0137186
1578	0.0141647
1590	0.0109302
1602	0.0114879
1614	0.00803038
1626	0.00680351
1638	0.00401519
1650	0.00546512
1662	0.00267679
1674	0.00234219
1686	0.00267679
1698	0.00345752
1710	0.00457285
1722	0.00501899
1734	0.00747271
1746	0.0104841
1758	0.0226412
1770	0.0266564
1782	0.00713811
1794	0.00758424
1806	0.00803038
1818	0.0103726
1830	0.0127148
1842	0.010038
1854	0.00803038
1866	0.00702658
1878	0.00669198
1890	0.00814191
1902	0.00914571
1914	0.00825344
1926	0.00591125
1938	0.00446132
1950	0.00323446
1962	0.00278832
1974	0.00189606
1986	0.0013384
1998	0.001673
2010	0.00156146
2022	0.00144993
2034	0.00122686
2046	0.0010038
2058	0.000780731
2070	0.000780731
2082	0.0010038
2094	0.000892264
2106	0.000780731
2118	0.00122686
2130	0.00122686
2142	0.00122686
2154	0.000892264
2166	0.000892264
2178	0.000892264
2190	0.000669198
2202	0.000669198
2214	0.000334599
2226	0.000446132
2238	0.000334599
2250	0.00111533
2262	0.00189606
2274	0.00234219
2286	0.00312292
2298	0.00278832
2310	0.00334599
2322	0.0013384
2334	0.0013384
2346	0.00769578
2358	0.0115994
2370	0.0189606
2382	0.032233
2394	0.0434979
2406	0.055878
2418	0.070935
2430	0.0970337
2442	0.110641
2454	0.0791884
2466	0.0434979
2478	0.0178453
2490	0.00769578
2502	0.00423825
2514	0.00267679
2526	0.00211913
2538	0.00200759
2550	0.00189606
2562	0.00245373
2574	0.00223066
2586	0.00200759
2598	0.00211913
2610	0.00211913
2622	0.00256526
2634	0.00267679
2646	0.00245373
2658	0.00267679
2670	0.00211913
2682	0.00211913
2694	0.00223066
2706	0.00211913
2718	0.00189606
2730	0.00289986
2742	0.00223066
2754	0.00301139
2766	0.00323446
2778	0.00446132
2790	0.00568818
2802	0.00836498
2814	0.011711
2826	0.0162838
2838	0.0213028
2850	0.0526436
2862	0.0817537
2874	0.0739464
2886	0.0384789
2898	0.0369174
2910	0.0462862
2922	0.0586664
2934	0.0624585
2946	0.0931301
2958	0.163842
2970	0.183137
2982	0.128263
2994	0.0900071
3006	0.0804153
3018	0.0755078
3030	0.0636853
3042	0.0485169
3054	0.037252
3066	0.0327907
3078	0.0289986
3090	0.0233104
3102	0.0175107
3114	0.0128263
3126	0.00936877
3138	0.00658045
3150	0.00501899
3162	0.00334599
3174	0.00245373
3186	0.00211913
3198	0.00245373
3210	0.00211913
3222	0.00178453
3234	0.00122686
3246	0.0010038
3258	0.000557665
3270	0.000669198
3282	0.000334599
3294	0.00111533
3306	0.000669198
3318	0.00122686
3330	0.000669198
3342	0.000557665
3354	0.000446132
3366	0.00122686
3378	0.000557665
3390	0.0013384
3402	0.00144993
3414	0.00211913
3426	0.00178453
3438	0.0013384
3450	0.0010038
3462	0.0010038
3474	0.000780731
3486	0.00223066
3498	0.00189606
3510	0.00122686
3522	0.00211913
3534	0.00189606
3546	0.00245373
3558	0.00200759
3570	0.001673
3582	0.00847651
3594	0.00836498
3606	0.00200759
3618	0.00289986
3630	0.00223066
3642	0.00680351
3654	0.00903417
3666	0.00501899
3678	0.00814191
3690	0.00546512
3702	0.00501899
3714	0.00568818
3726	0.00423825
3738	0.00680351
3750	0.000334599
3762	0.000892264
3774	0.00245373
3786	0.001673
3798	0.00434979
3810	0.0010038
3822	0.000892264
3834	0.0013384
3846	0.000780731
3858	0.0010038
3870	0.00156146
3882	0.000557665
3894	0.00368059
3906	0.00144993
3918	0.00301139
3930	0.00234219
3942	0.00178453
3954	0.00368059
3966	0.00312292
