Infrared Spectrum: Propanedioic acid, (ethoxymethylene)-, diethyl ester
Formula: C 10 H 16 O 5
CAS: 87-13-8
Origin: Sadtler Research Labs Under US-EPA Contract
1/CM	ABSORBANCE
450	0.0138632
462	0.00826281
474	0.0189127
486	0.013955
498	0.00835462
510	0.00642663
522	0.00431502
534	0.00449864
546	0.00807919
558	0.00670206
570	0.00183618
582	0.00550854
594	0.00495769
606	0.00587578
618	0.0101908
630	0.0071611
642	0.00973175
654	0.00853824
666	0.00633482
678	0.00826281
690	0.008171
702	0.0179946
714	0.0224932
726	0.0340611
738	0.0286444
750	0.024054
762	0.0342448
774	0.0324086
786	0.0343366
798	0.03654
810	0.0280017
822	0.0248802
834	0.0257065
846	0.0289198
858	0.0500359
870	0.0627055
882	0.0402123
894	0.0375499
906	0.0247884
918	0.0148731
930	0.01827
942	0.0192799
954	0.0165256
966	0.0190963
978	0.024054
990	0.0369072
1002	0.0618793
1014	0.100255
1026	0.186005
1038	0.171316
1050	0.144324
1062	0.228972
1074	0.502654
1086	0.642663
1098	0.6613
1110	0.650742
1122	0.790292
1134	0.808837
1146	0.631095
1158	0.587394
1170	0.674704
1182	0.856303
1194	0.823435
1206	0.409744
1218	0.281762
1230	0.379906
1242	0.571603
1254	0.503297
1266	0.460422
1278	0.620904
1290	0.507979
1302	0.301593
1314	0.225299
1326	0.136336
1338	0.0952059
1350	0.104295
1362	0.123575
1374	0.187382
1386	0.208865
1398	0.198216
1410	0.133398
1422	0.0693158
1434	0.0538919
1446	0.0687649
1458	0.0701421
1470	0.0867595
1482	0.0725291
1494	0.0292871
1506	0.0150567
1518	0.0132205
1530	0.0113843
1542	0.00394779
1554	0.00844643
1566	0.0142304
1578	0.0229523
1590	0.0274509
1602	0.0494851
1614	0.111181
1626	0.21318
1638	0.464462
1650	0.525974
1662	0.181415
1674	0.0952977
1686	0.0820772
1698	0.104295
1710	0.176641
1722	0.432329
1734	0.820772
1746	0.768258
1758	0.615947
1770	0.304255
1782	0.149281
1794	0.0749161
1806	0.0410386
1818	0.0290116
1830	0.0203816
1842	0.0157911
1854	0.0138632
1866	0.00771196
1878	0.00587578
1890	0.00587578
1902	0.00560035
1914	0.00394779
1926	0.00495769
1938	0.0050495
1950	0.00578397
1962	0.0050495
1974	0.00376417
1986	0.00247884
1998	0.00165256
2010	0.00146894
2022	0.00229523
2034	0.00229523
2046	0.00238703
2058	0.00156075
2070	0.000734472
2082	0.00146894
2094	0.00174437
2106	0.00220342
2118	0.00247884
2130	0.00312151
2142	0.0030297
2154	0.00348874
2166	0.00220342
2178	0.00128533
2190	0.00119352
2202	0.000826281
2214	0.000642663
2226	0.00110171
2238	0.00183618
2250	0.00247884
2262	0.00330512
2274	0.00440683
2286	0.00541673
2298	0.00872186
2310	0.012027
2322	0.0108335
2334	0.00872186
2346	0.0179028
2358	0.00963995
2370	0.0115679
2382	0.00991537
2394	0.00523311
2406	0.00532492
2418	0.00578397
2430	0.00670206
2442	0.00651844
2454	0.00569216
2466	0.00486588
2478	0.00431502
2490	0.00385598
2502	0.00348874
2514	0.00348874
2526	0.00339693
2538	0.00358055
2550	0.00431502
2562	0.00367236
2574	0.00330512
2586	0.00358055
2598	0.00358055
2610	0.00358055
2622	0.00385598
2634	0.00385598
2646	0.00321332
2658	0.00312151
2670	0.00321332
2682	0.00284608
2694	0.00330512
2706	0.00385598
2718	0.00541673
2730	0.00688567
2742	0.00762015
2754	0.00927271
2766	0.0117516
2778	0.0125778
2790	0.0126696
2802	0.0136795
2814	0.0157911
2826	0.0193717
2838	0.0211161
2850	0.0251557
2862	0.0339693
2874	0.0519639
2886	0.0919926
2898	0.120086
2910	0.120729
2922	0.106223
2934	0.133307
2946	0.202622
2958	0.151026
2970	0.181231
2982	0.305999
2994	0.338408
3006	0.169663
3018	0.0847397
3030	0.0473734
3042	0.030756
3054	0.0238703
3066	0.0176273
3078	0.013955
3090	0.0119352
3102	0.0106498
3114	0.010099
3126	0.00927271
3138	0.00881366
3150	0.00780376
3162	0.00789557
3174	0.00826281
3186	0.00853824
3198	0.00771196
3210	0.00734472
3222	0.00743653
3234	0.00661025
3246	0.00670206
3258	0.00642663
3270	0.00651844
3282	0.00688567
3294	0.00633482
3306	0.00706929
3318	0.00706929
3330	0.00762015
3342	0.00752834
3354	0.00752834
3366	0.00826281
3378	0.00927271
3390	0.00890547
3402	0.00872186
3414	0.00881366
3426	0.0091809
3438	0.0112007
3450	0.0119352
3462	0.0115679
3474	0.0114761
3486	0.0113843
3498	0.0108335
3510	0.00844643
3522	0.00844643
3534	0.00872186
3546	0.00899728
3558	0.00688567
3570	0.00863005
3582	0.00807919
3594	0.00688567
3606	0.00853824
3618	0.00633482
3630	0.00734472
3642	0.00624301
3654	0.00523311
3666	0.0122106
3678	0.00165256
3690	0.00449864
3702	0.00899728
3714	0.00679387
3726	0.00651844
3738	0.00275427
3750	0.00863005
3762	0.00835462
3774	0.00624301
3786	0.00670206
3798	0.00771196
3810	0.0115679
3822	0.00348874
3834	0.00679387
3846	0.0114761
3858	0
3870	0.00578397
3882	0.00945633
3894	0.00605939
3906	0.00697748
3918	0.00826281
3930	0.008171
3942	0.00835462
3954	0.00963995
3966	0.00578397
