Infrared Spectrum: Benzoic acid, 2-amino-, ethyl ester
Formula: C 9 H 11 N O 2
CAS: 87-25-2
Origin: Sadtler Research Labs Under US-EPA Contract
1/CM	ABSORBANCE
450	0
462	0.0672023
474	0.0517535
486	0.0880582
498	0.113806
510	0.169937
522	0.205212
534	0.130285
546	0.103507
558	0.115609
570	0.0672023
582	0.0599928
594	0.0630826
606	0.0553582
618	0.0684897
630	0.0798188
642	0.0756991
654	0.0888306
666	0.146249
678	0.126165
690	0.147279
702	0.210104
714	0.0973274
726	0.0872857
738	0.259025
750	0.511613
762	0.187188
774	0.0695196
786	0.0651424
798	0.0718369
810	0.06437
822	0.0628251
834	0.0720944
846	0.0924353
858	0.0962975
870	0.0628251
882	0.045059
894	0.0406818
906	0.0360472
918	0.0314126
930	0.0350173
942	0.0350173
954	0.0324425
966	0.0324425
978	0.0350173
990	0.0401669
1002	0.0576755
1014	0.076729
1026	0.103507
1038	0.134147
1050	0.103764
1062	0.177919
1074	0.340904
1086	0.437716
1098	0.90736
1110	1.42077
1122	0.558732
1134	0.218858
1146	0.214738
1158	0.708842
1170	0.425099
1182	0.170967
1194	0.113034
1206	0.105567
1218	0.145734
1230	0.435399
1242	1.59277
1254	2.1134
1266	0.605335
1278	0.649107
1290	1.3201
1302	0.5783
1314	0.336526
1326	0.237654
1338	0.106597
1350	0.0672023
1362	0.129512
1374	0.234822
1386	0.0986148
1398	0.0955251
1410	0.0738968
1422	0.0620527
1434	0.0692621
1446	0.143159
1458	0.256193
1470	0.228642
1482	0.267522
1494	0.285288
1506	0.142129
1518	0.0653999
1530	0.0656574
1542	0.0916629
1554	0.177404
1566	0.288635
1578	0.269839
1590	0.5129
1602	0.691076
1614	0.87157
1626	0.812864
1638	0.256708
1650	0.116381
1662	0.102477
1674	0.113034
1686	0.201349
1698	0.74077
1710	1.41408
1722	0.643957
1734	0.283485
1746	0.136979
1758	0.0847109
1770	0.0679747
1782	0.052011
1794	0.0502086
1806	0.0424842
1818	0.038622
1830	0.0332149
1842	0.0306401
1854	0.0311551
1866	0.0319275
1878	0.0337299
1890	0.038622
1902	0.0435141
1914	0.0535558
1926	0.0458314
1938	0.0442866
1950	0.0365622
1962	0.038107
1974	0.0357897
1986	0.0324425
1998	0.0329574
2010	0.0324425
2022	0.032185
2034	0.03167
2046	0.0285803
2058	0.0303826
2070	0.0303826
2082	0.0306401
2094	0.0329574
2106	0.0350173
2118	0.0350173
2130	0.0357897
2142	0.0360472
2154	0.0332149
2166	0.0324425
2178	0.0314126
2190	0.0298677
2202	0.0301252
2214	0.0306401
2226	0.0308976
2238	0.0308976
2250	0.0306401
2262	0.0319275
2274	0.0327
2286	0.0314126
2298	0.0308976
2310	0.0342448
2322	0.0345023
2334	0.03167
2346	0.03167
2358	0.0365622
2370	0.0285803
2382	0.0308976
2394	0.0334724
2406	0.0345023
2418	0.0332149
2430	0.0308976
2442	0.0303826
2454	0.0298677
2466	0.0298677
2478	0.0314126
2490	0.03167
2502	0.0301252
2514	0.0306401
2526	0.0327
2538	0.0324425
2550	0.0311551
2562	0.0298677
2574	0.0306401
2586	0.0301252
2598	0.0301252
2610	0.0308976
2622	0.0337299
2634	0.0357897
2646	0.0363047
2658	0.0365622
2670	0.0319275
2682	0.0285803
2694	0.0288378
2706	0.0303826
2718	0.032185
2730	0.0363047
2742	0.0342448
2754	0.0342448
2766	0.0365622
2778	0.0378496
2790	0.038107
2802	0.0373346
2814	0.0411968
2826	0.0432566
2838	0.0417118
2850	0.0440291
2862	0.0491787
2874	0.0592204
2886	0.0823936
2898	0.0849684
2910	0.0983574
2922	0.0999022
2934	0.115094
2946	0.171739
2958	0.146506
2970	0.177661
2982	0.280138
2994	0.283228
3006	0.168392
3018	0.110716
3030	0.125908
3042	0.136207
3054	0.136464
3066	0.140327
3078	0.115609
3090	0.131057
3102	0.0684897
3114	0.0494362
3126	0.0437716
3138	0.0411968
3150	0.038107
3162	0.039137
3174	0.0424842
3186	0.0422267
3198	0.0401669
3210	0.0378496
3222	0.0355322
3234	0.0337299
3246	0.0368196
3258	0.0365622
3270	0.0388795
3282	0.0409393
3294	0.0437716
3306	0.0473763
3318	0.0463464
3330	0.0458314
3342	0.0458314
3354	0.0522684
3366	0.0834235
3378	0.239714
3390	0.405788
3402	0.205469
3414	0.0911479
3426	0.0741542
3438	0.0553582
3450	0.0453165
3462	0.0453165
3474	0.0545858
3486	0.0733818
3498	0.113291
3510	0.209074
3522	0.269067
3534	0.145219
3546	0.06437
3558	0.0442866
3570	0.0365622
3582	0.038107
3594	0.0363047
3606	0.0327
3618	0.0334724
3630	0.0350173
3642	0.0298677
3654	0.0314126
3666	0.0293527
3678	0.0355322
3690	0.0368196
3702	0.0337299
3714	0.0303826
3726	0.0303826
3738	0.0308976
3750	0.0293527
3762	0.0298677
3774	0.0298677
3786	0.0285803
3798	0.0308976
3810	0.0350173
3822	0.0370771
3834	0.0329574
3846	0.0306401
3858	0.0285803
3870	0.0324425
3882	0.0288378
3894	0.0306401
3906	0.0329574
3918	0.0308976
3930	0.0290952
3942	0.0332149
3954	0.032185
3966	0.0345023
