Infrared Spectrum: Phenol, 2-(1-methylbutyl)-
Formula: C 11 H 16 O
CAS: 87-26-3
Origin: Sadtler Research Labs Under US-EPA Contract
1/CM	ABSORBANCE
450	0.0419868
462	0.025175
474	0.0387439
486	0.0480459
498	0.0988226
510	0.0650283
522	0.019372
534	0.0389999
546	0.0428402
558	0.0491553
570	0.0211641
582	0.0162997
594	0.0168118
606	0.0168971
618	0.00512034
630	0.00187746
642	0.00238949
654	0.00913127
666	0.00384026
678	0.0101553
690	0.0192013
702	0.0225295
714	0.0368664
726	0.0521421
738	0.220175
750	0.476106
762	0.107783
774	0.0295273
786	0.025175
798	0.0327702
810	0.0558117
822	0.109661
834	0.117853
846	0.0518861
858	0.0460831
870	0.0329409
882	0.0343916
894	0.030466
906	0.0228709
918	0.0297833
930	0.0259431
942	0.0160437
954	0.00631509
966	0.00981399
978	0.0117768
990	0.0234682
1002	0.0269671
1014	0.0296126
1026	0.0383172
1038	0.0692953
1050	0.0516301
1062	0.0485579
1074	0.0714287
1086	0.104711
1098	0.103346
1110	0.0989932
1122	0.0856804
1134	0.095665
1146	0.150453
1158	0.181857
1170	0.432157
1182	0.411249
1194	0.305855
1206	0.242277
1218	0.144735
1230	0.139359
1242	0.218126
1254	0.290238
1266	0.201229
1278	0.112647
1290	0.114013
1302	0.110173
1314	0.157792
1326	0.192439
1338	0.0851683
1350	0.0487286
1362	0.0473631
1374	0.0611027
1386	0.0843149
1398	0.0408774
1410	0.0303807
1422	0.0360131
1434	0.065967
1446	0.168203
1458	0.268647
1470	0.189197
1482	0.182711
1494	0.239973
1506	0.206094
1518	0.168289
1530	0.0359277
1542	0.0168118
1554	0.0197986
1566	0.0370371
1578	0.0778292
1590	0.111111
1602	0.107868
1614	0.0976278
1626	0.0401093
1638	0.0112647
1650	0.00358424
1662	0.0137396
1674	0.00921661
1686	0.01007
1698	0.00674178
1710	0.00409627
1722	0.00375492
1734	0.00366958
1746	0.0065711
1758	0.00750983
1770	0.00878992
1782	0.00785119
1794	0.00716848
1806	0.00452297
1818	0.00563237
1830	0.00221881
1842	0.00435229
1854	0.00640043
1866	0.00563237
1878	0.0104967
1890	0.0141663
1902	0.00989932
1914	0.00682712
1926	0.0106674
1938	0.00537636
1950	0.0015361
1962	0.000938729
1974	0.0015361
1986	0.00110941
1998	0.00187746
2010	0.00162144
2022	0.00221881
2034	0.00179212
2046	0.00230415
2058	0.00358424
2070	0.00426695
2082	0.00290153
2094	0.00256017
2106	0.00110941
2118	0.00085339
2130	0.00085339
2142	0.000426695
2154	0.00102407
2166	0.00102407
2178	0.000768051
2190	0.00102407
2202	0.000938729
2214	0.00145076
2226	0.00102407
2238	0.00145076
2250	0.00213348
2262	0.00204814
2274	0.00247483
2286	0.00341356
2298	0.00477898
2310	0.00588839
2322	0.00631509
2334	0.0054617
2346	0.00409627
2358	0.00597373
2370	0.00537636
2382	0.00563237
2394	0.00571771
2406	0.00716848
2418	0.00819254
2430	0.00938729
2442	0.00768051
2454	0.00631509
2466	0.00597373
2478	0.00665644
2490	0.00674178
2502	0.00605907
2514	0.00520568
2526	0.00477898
2538	0.00418161
2550	0.00529102
2562	0.00597373
2574	0.00563237
2586	0.00605907
2598	0.0065711
2610	0.00742449
2622	0.00716848
2634	0.00819254
2646	0.00768051
2658	0.00785119
2670	0.00802187
2682	0.00938729
2694	0.0089606
2706	0.00921661
2718	0.0104967
2730	0.0131422
2742	0.0159584
2754	0.0141663
2766	0.0128009
2778	0.0141663
2790	0.0177505
2802	0.0210787
2814	0.0258577
2826	0.0336236
2838	0.0444616
2850	0.074757
2862	0.161632
2874	0.279741
2886	0.352621
2898	0.241424
2910	0.256529
2922	0.363715
2934	0.516984
2946	0.48575
2958	0.485067
2970	0.85339
2982	0.452382
2994	0.126302
3006	0.0830348
3018	0.10565
3030	0.13603
3042	0.142345
3054	0.106247
3066	0.118024
3078	0.140639
3090	0.084827
3102	0.0472778
3114	0.0312341
3126	0.0215054
3138	0.0167264
3150	0.0141663
3162	0.0132275
3174	0.0116061
3186	0.0102407
3198	0.00887526
3210	0.00793653
3222	0.00622975
3234	0.00477898
3246	0.00494966
3258	0.00401093
3270	0.00401093
3282	0.00435229
3294	0.00392559
3306	0.00384026
3318	0.00401093
3330	0.00452297
3342	0.00648576
3354	0.00674178
3366	0.00640043
3378	0.00733915
3390	0.00819254
3402	0.00742449
3414	0.00750983
3426	0.0069978
3438	0.00537636
3450	0.00494966
3462	0.00554704
3474	0.00443763
3486	0.00341356
3498	0.00392559
3510	0.00332822
3522	0.00486432
3534	0.00384026
3546	0.0019628
3558	0.00324288
3570	0.00085339
3582	0.00520568
3594	0.00776585
3606	0.0069978
3618	0.0104114
3630	0.0436936
3642	0.238864
3654	0.360984
3666	0.0963477
3678	0.0164704
3690	0.00776585
3702	0.00221881
3714	0.00119475
3726	0.00162144
3738	0.00145076
3750	0.000768051
3762	0.000512034
3774	0.00384026
3786	0.000341356
3798	0.00247483
3810	8.5339e-05
3822	0.00128009
3834	0.00085339
3846	0.00256017
3858	0.00588839
3870	0.00170678
3882	0.00085339
3894	0.00341356
3906	0.00597373
3918	0.00290153
3930	0.00469365
3942	0.00247483
3954	0.00384026
3966	0.00384026
