Infrared Spectrum: Benzoic acid, 2-hydroxy-, 3-methylbutyl ester
Formula: C 12 H 16 O 3
CAS: 87-20-7
Origin: Sadtler Research Labs Under US-EPA Contract
1/CM	ABSORBANCE
450	0.03365
462	0.0244478
474	0.0149708
486	0.0177178
498	0.0339247
510	0.0380451
522	0.0611194
534	0.0723819
546	0.0501317
558	0.0347488
570	0.0352982
582	0.0243104
594	0.00782878
606	0.0199153
618	0.0263706
630	0.0258212
642	0.0203274
654	0.0340621
666	0.103148
678	0.0763649
690	0.1118
702	0.221403
714	0.178551
726	0.0932586
738	0.066888
750	0.288429
762	0.237473
774	0.0477968
786	0.0262333
798	0.0379078
810	0.0406547
822	0.0395559
834	0.0326886
846	0.033238
858	0.0576857
870	0.0508184
882	0.0244478
894	0.0146961
906	0.0189539
918	0.0249972
930	0.0331006
942	0.0611194
954	0.0910611
966	0.0836443
978	0.0516425
990	0.0347488
1002	0.0303537
1014	0.0335127
1026	0.0804853
1038	0.0991645
1050	0.0486208
1062	0.0552135
1074	0.166602
1086	0.616825
1098	0.23555
1110	0.145313
1122	0.195994
1134	0.45091
1146	0.265354
1158	1.08504
1170	0.302438
1182	0.290352
1194	0.245576
1206	0.697723
1218	0.795926
1230	0.425776
1242	0.499668
1254	0.91789
1266	0.367541
1278	0.302438
1290	0.47371
1302	1.37347
1314	0.616688
1326	0.508184
1338	0.347351
1350	0.235275
1362	0.160696
1374	0.165778
1386	0.224974
1398	0.314525
1410	0.2806
1422	0.207257
1434	0.121277
1446	0.104109
1458	0.189402
1470	0.356828
1482	0.462859
1494	0.290626
1506	0.13254
1518	0.0649651
1530	0.0365343
1542	0.0306284
1554	0.0358476
1566	0.0600206
1578	0.136798
1590	0.211102
1602	0.155889
1614	0.321529
1626	0.171958
1638	0.0627676
1650	0.0844684
1662	0.128694
1674	0.283072
1686	0.877373
1698	0.897013
1710	0.248049
1722	0.080348
1734	0.0651025
1746	0.10768
1758	0.0620808
1770	0.0256839
1782	0.0146961
1794	0.0120865
1806	0.0186792
1818	0.0135974
1830	0.0105757
1842	0.00837817
1854	0.0046698
1866	0.0046698
1878	0.00329633
1890	0.00590592
1902	0.00782878
1914	0.00988898
1926	0.0173057
1938	0.00686735
1950	0.013048
1962	0.00357102
1974	0.00206021
1986	0.000824082
1998	0.000961429
2010	0.00123612
2022	0.00206021
2034	0.00260959
2046	0.00247225
2058	0.00260959
2070	0.00164816
2082	0.000686735
2094	0.00260959
2106	0.00357102
2118	0.00480715
2130	0.00480715
2142	0.00370837
2154	0.00412041
2166	0.00398306
2178	0.00370837
2190	0.00357102
2202	0.00302163
2214	0.00343368
2226	0.00343368
2238	0.0046698
2250	0.00549388
2262	0.00535653
2274	0.00604327
2286	0.00618062
2298	0.00370837
2310	0.000549388
2322	0.000274694
2334	0.00453245
2346	0.00494449
2358	0.00164816
2370	0.0126359
2382	0.0116745
2394	0.00975164
2406	0.00851551
2418	0.00865286
2430	0.0104384
2442	0.0093396
2454	0.0090649
2466	0.0090649
2478	0.0093396
2490	0.00975164
2502	0.0107131
2514	0.0093396
2526	0.00879021
2538	0.010301
2550	0.0112625
2562	0.00947694
2574	0.0107131
2586	0.0112625
2598	0.0131853
2610	0.0141467
2622	0.0159323
2634	0.0141467
2646	0.0140094
2658	0.0105757
2670	0.00920225
2682	0.0122239
2694	0.0159323
2706	0.016619
2718	0.0175804
2730	0.0193659
2742	0.0204647
2754	0.0210141
2766	0.0229369
2778	0.0247225
2790	0.0232116
2802	0.0260959
2814	0.0248598
2826	0.0278814
2838	0.0354355
2850	0.0515051
2862	0.0644157
2874	0.117432
2886	0.185281
2898	0.161795
2910	0.191462
2922	0.228133
2934	0.263294
2946	0.277304
2958	0.340895
2970	0.630697
2982	0.31892
2994	0.135699
3006	0.0815841
3018	0.0548015
3030	0.0539774
3042	0.0524666
3054	0.0703217
3066	0.0966923
3078	0.107405
3090	0.0782878
3102	0.0677121
3114	0.0438137
3126	0.0384572
3138	0.0387319
3150	0.0421655
3162	0.049857
3174	0.0607074
3186	0.0716951
3198	0.0899623
3210	0.116608
3222	0.161795
3234	0.205471
3246	0.215497
3258	0.200252
3270	0.167151
3282	0.14339
3294	0.130068
3306	0.114822
3318	0.104109
3330	0.0954562
3342	0.0865286
3354	0.0758155
3366	0.0696349
3378	0.0627676
3390	0.0552135
3402	0.0455992
3414	0.0410668
3426	0.0370837
3438	0.0347488
3450	0.036397
3462	0.0579604
3474	0.0737553
3486	0.0512304
3498	0.0362596
3510	0.030079
3522	0.0207394
3534	0.0151082
3546	0.0119492
3558	0.0107131
3570	0.00824082
3582	0.00851551
3594	0.00796613
3606	0.00618062
3618	0.0043951
3630	0.00590592
3642	0.00370837
3654	0.00521919
3666	0.00398306
3678	0.00219755
3690	0.00151082
3702	0.00274694
3714	0.000137347
3726	0.00494449
3738	0.000824082
3750	0.00137347
3762	0.000274694
3774	0.000274694
3786	0.000274694
3798	0.000274694
3810	0.000274694
3822	0.000274694
3834	0.000274694
3846	0.000274694
3858	0.000274694
3870	0.000274694
3882	0.000274694
3894	0.000274694
3906	0.000274694
3918	0.000274694
3930	0.000274694
3942	0.00109878
3954	0.000274694
3966	0.00260959
