Infrared Spectrum: Benzene, 1,3,5-trichloro-2-methoxy-
Formula: C 7 H 5 Cl 3 O
CAS: 87-40-1
Origin: Sadtler Research Labs Under US-EPA Contract
1/CM	ABSORBANCE
450	0
462	0.0383045
474	0.0313026
486	0.0316115
498	0.0250215
510	0.0357302
522	0.0301699
534	0.0254333
546	0.026669
558	0.0417024
570	0.0907157
582	0.0999829
594	0.0427321
606	0.0215205
618	0.0313026
630	0.0246096
642	0.0288313
654	0.0241977
666	0.0270808
678	0.0458212
690	0.222104
702	0.179372
714	0.0403638
726	0.0388193
738	0.0560151
750	0.167737
762	0.123666
774	0.0447915
786	0.137155
798	0.284091
810	0.337223
822	0.286666
834	0.0994681
846	0.282341
858	0.452034
870	0.146525
882	0.043041
894	0.0304788
906	0.0288313
918	0.0307877
930	0.0380985
942	0.0322293
954	0.033053
966	0.0348035
978	0.0514845
990	0.159911
1002	0.480865
1014	0.301184
1026	0.0858761
1038	0.0606487
1050	0.0378926
1062	0.0429381
1074	0.0637378
1086	0.0645616
1098	0.0361421
1110	0.0327441
1122	0.0493222
1134	0.129329
1146	0.132521
1158	0.0451004
1170	0.0370688
1182	0.053029
1194	0.0749614
1206	0.066312
1218	0.0753733
1230	0.107912
1242	0.139214
1254	0.307259
1266	0.570448
1278	0.182461
1290	0.0704308
1302	0.0695041
1314	0.053132
1326	0.0428351
1338	0.0421143
1350	0.0486014
1362	0.109971
1374	0.204908
1386	0.26669
1398	0.147143
1410	0.463566
1422	0.931766
1434	0.171032
1446	0.130256
1458	0.278943
1470	1.00529
1482	0.508667
1494	0.0977176
1506	0.0541617
1518	0.0435559
1530	0.0611636
1542	0.180196
1554	0.318174
1566	0.151364
1578	0.135301
1590	0.0596191
1602	0.0354213
1614	0.0351124
1626	0.0287284
1638	0.0236829
1650	0.0196671
1662	0.0223443
1674	0.0181225
1686	0.0145186
1698	0.0180196
1710	0.0352154
1722	0.0546765
1734	0.029861
1746	0.0185344
1758	0.0177107
1770	0.0168869
1782	0.0181225
1794	0.0157543
1806	0.016681
1818	0.0168869
1830	0.0162691
1842	0.0171958
1854	0.0202849
1866	0.0177107
1878	0.0170929
1890	0.0157543
1902	0.0169899
1914	0.0171958
1926	0.019976
1938	0.0223443
1950	0.0273898
1962	0.0280076
1974	0.0240947
1986	0.0270808
1998	0.0317145
2010	0.0288313
2022	0.0225502
2034	0.0192552
2046	0.0181225
2058	0.0172988
2070	0.0169899
2082	0.0176077
2094	0.0178136
2106	0.0188433
2118	0.0188433
2130	0.0162691
2142	0.0163721
2154	0.0177107
2166	0.0201819
2178	0.0181225
2190	0.0159602
2202	0.016475
2214	0.0163721
2226	0.0179166
2238	0.0172988
2250	0.0170929
2262	0.01977
2274	0.0203879
2286	0.0184315
2298	0.0195641
2310	0.0207997
2322	0.0211086
2334	0.0192552
2346	0.0225502
2358	0.0171958
2370	0.0183285
2382	0.0190493
2394	0.0174018
2406	0.0175047
2418	0.0176077
2430	0.0178136
2442	0.0176077
2454	0.0182255
2466	0.0187404
2478	0.0189463
2490	0.0193582
2502	0.01977
2514	0.0216235
2526	0.0228591
2538	0.0206968
2550	0.0186374
2562	0.0181225
2574	0.0185344
2586	0.0187404
2598	0.01977
2610	0.0201819
2622	0.0195641
2634	0.0188433
2646	0.0193582
2658	0.0190493
2670	0.0193582
2682	0.019976
2694	0.0190493
2706	0.0190493
2718	0.0193582
2730	0.020079
2742	0.0201819
2754	0.0205938
2766	0.0220354
2778	0.0238888
2790	0.0245066
2802	0.0249185
2814	0.0318174
2826	0.0504548
2838	0.0541617
2850	0.0541617
2862	0.0593101
2874	0.0580745
2886	0.0553973
2898	0.0680625
2910	0.0601339
2922	0.0606487
2934	0.0918483
2946	0.147349
2958	0.167634
2970	0.100601
2982	0.0766089
2994	0.0574567
3006	0.0649734
3018	0.0899949
3030	0.0648705
3042	0.0479836
3054	0.0413935
3066	0.0379956
3078	0.0374807
3090	0.0369659
3102	0.0296551
3114	0.0267719
3126	0.0253304
3138	0.0237858
3150	0.0213146
3162	0.0194611
3174	0.0188433
3186	0.0189463
3198	0.0191522
3210	0.0192552
3222	0.0184315
3234	0.0182255
3246	0.0184315
3258	0.0196671
3270	0.0193582
3282	0.0190493
3294	0.0187404
3306	0.0186374
3318	0.0190493
3330	0.020079
3342	0.0189463
3354	0.0186374
3366	0.0189463
3378	0.0190493
3390	0.0196671
3402	0.019873
3414	0.0196671
3426	0.0193582
3438	0.01977
3450	0.0201819
3462	0.0190493
3474	0.0192552
3486	0.0185344
3498	0.0204908
3510	0.0188433
3522	0.0196671
3534	0.0192552
3546	0.0195641
3558	0.0190493
3570	0.0204908
3582	0.0189463
3594	0.0190493
3606	0.019873
3618	0.019976
3630	0.0211086
3642	0.0188433
3654	0.0207997
3666	0.0191522
3678	0.0168869
3690	0.0204908
3702	0.0195641
3714	0.0189463
3726	0.0186374
3738	0.0190493
3750	0.0246096
3762	0.0189463
3774	0.0181225
3786	0.0196671
3798	0.0230651
3810	0.0204908
3822	0.0191522
3834	0.0192552
3846	0.0243007
3858	0.0184315
3870	0.0206968
3882	0.0213146
3894	0.0178136
3906	0.0205938
3918	0.0235799
3930	0.0202849
3942	0.0217265
3954	0.0211086
3966	0.0195641
