Infrared Spectrum: Benzenamine, 2,3-dimethyl-
Formula: C 8 H 11 N
CAS: 87-59-2
Origin: Sadtler Research Labs Under US-EPA Contract
1/CM	ABSORBANCE
450	0.000189308
462	0.0133462
474	0.0162805
486	0.0230482
498	0.0144347
510	0.0183155
522	0.0216284
534	0.0196407
546	0.0128729
558	0.002461
570	0.00970204
582	0.0213445
594	0.024752
606	0.0375776
618	0.0485102
630	0.057597
642	0.06976
654	0.0786575
666	0.072363
678	0.0666364
690	0.0834848
702	0.105161
714	0.105492
726	0.0585908
738	0.0475636
750	0.110319
762	0.250975
774	0.268391
786	0.127688
798	0.0503559
810	0.0352586
822	0.0255566
834	0.0228589
846	0.0216758
858	0.0187415
870	0.0190255
882	0.0239948
894	0.0258405
906	0.0149553
918	0.0082349
930	0.00790361
942	0.0089448
954	0.01027
966	0.0128729
978	0.0205399
990	0.029816
1002	0.0251306
1014	0.0164698
1026	0.022717
1038	0.0360158
1050	0.0386188
1062	0.0307152
1074	0.0417424
1086	0.099434
1098	0.115715
1110	0.067583
1122	0.0542841
1134	0.0278756
1146	0.00832955
1158	0.0124943
1170	0.014766
1182	0.00809292
1194	0.00851886
1206	0.00795094
1218	0.00695707
1230	0.00960738
1242	0.0135355
1254	0.0287275
1266	0.0558932
1278	0.161432
1290	0.27975
1302	0.199578
1314	0.0652639
1326	0.0188361
1338	0.0104119
1350	0.00752499
1362	0.0089448
1374	0.0100807
1386	0.0187888
1398	0.0185049
1410	0.0153813
1422	0.0231429
1434	0.0415531
1446	0.0905366
1458	0.192242
1470	0.330674
1482	0.334223
1494	0.198205
1506	0.0852359
1518	0.0558932
1530	0.0433042
1542	0.0463805
1554	0.0607205
1566	0.0968784
1578	0.155942
1590	0.25372
1602	0.296125
1614	0.342789
1626	0.47327
1638	0.315908
1650	0.10393
1662	0.0428783
1674	0.0232376
1686	0.0161858
1698	0.0134882
1710	0.0152866
1722	0.0176056
1734	0.0138668
1746	0.00814024
1758	0.00643647
1770	0.00539528
1782	0.00511132
1794	0.00605786
1806	0.010128
1818	0.0089448
1830	0.00369151
1842	0.00194041
1854	0.00141981
1866	0.0022717
1878	0.00553726
1890	0.0156652
1902	0.0182682
1914	0.0089448
1926	0.00288695
1938	0.00307625
1950	0.00354953
1962	0.00250833
1974	0.000851886
1986	0.000189308
1998	0.000662578
2010	0.000899213
2022	0.00108852
2034	0.000804559
2046	0.0012305
2058	0.00222437
2070	0.00222437
2082	0.0012305
2094	0.00208239
2106	0.00302893
2118	0.00326556
2130	0.00236635
2142	0.00236635
2154	0.00241368
2166	0.00288695
2178	0.00317091
2190	0.00250833
2202	0.00179843
2214	0.000520597
2226	0.000804559
2238	0.00170377
2250	0.002461
2262	0.002461
2274	0.00326556
2286	0.0035022
2298	0.00250833
2310	0.000662578
2322	0.000378616
2334	0.00274497
2346	0.0059632
2358	0.0012305
2370	0.00761965
2382	0.00657845
2394	0.00449607
2406	0.0047327
2418	0.00515864
2430	0.00425943
2442	0.00383349
2454	0.00449607
2466	0.00506399
2478	0.00548993
2490	0.00548993
2502	0.00520597
2514	0.00515864
2526	0.00444874
2538	0.00444874
2550	0.00530062
2562	0.00638915
2574	0.0089448
2586	0.00979669
2598	0.0113585
2610	0.00927609
2622	0.00738301
2634	0.00629449
2646	0.00705172
2658	0.00610518
2670	0.00397547
2682	0.00567924
2694	0.0071937
2706	0.00780896
2718	0.00941807
2730	0.0150027
2742	0.0216758
2754	0.0188361
2766	0.0129203
2778	0.0129676
2790	0.0132042
2802	0.0144347
2814	0.0168484
2826	0.0223857
2838	0.0314251
2850	0.0531955
2862	0.110367
2874	0.171655
2886	0.167159
2898	0.146619
2910	0.167869
2922	0.213539
2934	0.241178
2946	0.210652
2958	0.17246
2970	0.151162
2982	0.14165
2994	0.113254
3006	0.101895
3018	0.135639
3030	0.206961
3042	0.222106
3054	0.176482
3066	0.158829
3078	0.129061
3090	0.0829642
3102	0.0384769
3114	0.0200193
3126	0.0158072
3138	0.0130149
3150	0.0114058
3162	0.0104593
3174	0.0109799
3186	0.0106959
3198	0.0124943
3210	0.0111692
3222	0.00851886
3234	0.0118318
3246	0.00960738
3258	0.0094654
3270	0.00676776
3282	0.00544261
3294	0.00591588
3306	0.00582122
3318	0.00534795
3330	0.00761965
3342	0.00530062
3354	0.00728836
3366	0.0071937
3378	0.00828223
3390	0.0133462
3402	0.0381929
3414	0.0458125
3426	0.0245154
3438	0.0135828
3450	0.00567924
3462	0.0119737
3474	0.0292008
3486	0.0583542
3498	0.060058
3510	0.0236162
3522	0.0133935
3534	0.0113112
3546	0.00487468
3558	0.00425943
3570	0.00572657
3582	0.00321824
3594	0.00454339
3606	0.0017511
3618	0.00634182
3630	0.0017511
3642	0.00653113
3654	0.0047327
3666	0.000331289
3678	0.00449607
3690	0.00487468
3702	0.00728836
3714	9.4654e-05
3726	0.00321824
3738	0.00321824
3750	0.0059632
3762	0.00463805
3774	0.00657845
3786	0.00179843
3798	0.00520597
3810	0.00534795
3822	0.00463805
3834	0.00222437
3846	0.0077143
3858	0.00880282
3870	0.00241368
3882	0.00558459
3894	0.0126363
3906	0.00629449
3918	0.00449607
3930	0.00790361
3942	0.00672043
3954	0.00695707
3966	0.00837688
