Infrared Spectrum: Phenol, 2,6-dichloro-
Formula: C 6 H 4 Cl 2 O
CAS: 87-65-0
Origin: Sadtler Research Labs Under US-EPA Contract
1/CM	ABSORBANCE
450	0
462	0.0206609
474	0.0196113
486	0.0176225
498	0.0127611
510	0.0113801
522	0.0174015
534	0.0545801
546	0.0502159
558	0.0129269
570	0.01022
582	0.011822
594	0.0354108
606	0.0499397
618	0.0248593
630	0.011822
642	0.0118772
654	0.0129821
666	0.0130373
678	0.0178987
690	0.0256328
702	0.0717054
714	0.161586
726	0.0777269
738	0.0287816
750	0.106895
762	0.371951
774	0.269586
786	0.261299
798	0.3398
810	0.0989955
822	0.0472328
834	0.079108
846	0.0549668
858	0.011601
870	0.0100542
882	0.0117115
894	0.0113248
906	0.0129269
918	0.0130373
930	0.0129269
942	0.0170148
954	0.0194455
966	0.0205504
978	0.017954
990	0.0156338
1002	0.0153023
1014	0.0166834
1026	0.0165729
1038	0.0217105
1050	0.0439734
1062	0.0692195
1074	0.0586681
1086	0.0586681
1098	0.116342
1110	0.128606
1122	0.078666
1134	0.0881126
1146	0.144847
1158	0.206222
1170	0.31251
1182	0.354218
1194	0.124518
1206	0.0444706
1218	0.0756829
1230	0.219094
1242	0.284612
1254	0.158382
1266	0.205338
1278	0.156061
1290	0.0417085
1302	0.0456307
1314	0.115845
1326	0.32632
1338	0.255223
1350	0.0347478
1362	0.0144184
1374	0.0145842
1386	0.0171253
1398	0.0191693
1410	0.0198322
1422	0.0574527
1434	0.188434
1446	0.395871
1458	0.469179
1470	0.426752
1482	0.279253
1494	0.105348
1506	0.0501606
1518	0.0270691
1530	0.019556
1542	0.0217105
1554	0.0268481
1566	0.0601596
1578	0.139323
1590	0.114961
1602	0.0383939
1614	0.0168491
1626	0.0125954
1638	0.0167386
1650	0.0225391
1662	0.0154128
1674	0.0124849
1686	0.0121535
1698	0.0111591
1710	0.0091151
1722	0.00883888
1734	0.0098885
1746	0.0100542
1758	0.0110486
1770	0.0157443
1782	0.0157995
1794	0.0104962
1806	0.00812072
1818	0.00928082
1830	0.0167386
1842	0.0204952
1854	0.0121535
1866	0.0111591
1878	0.0113248
1890	0.014087
1902	0.0169596
1914	0.0139212
1926	0.00917034
1938	0.00834169
1950	0.00839694
1962	0.00756829
1974	0.00740256
1986	0.0074578
1998	0.00729208
2010	0.00756829
2022	0.00812072
2034	0.0074578
2046	0.00784451
2058	0.00812072
2070	0.00850742
2082	0.00850742
2094	0.00839694
2106	0.00850742
2118	0.00806548
2130	0.00701586
2142	0.00662916
2154	0.00657392
2166	0.00640819
2178	0.00657392
2190	0.00685013
2202	0.00640819
2214	0.00673965
2226	0.00729208
2238	0.00856267
2250	0.00867315
2262	0.00878364
2274	0.00900461
2286	0.0106067
2298	0.0117115
2310	0.0114353
2322	0.0106619
2334	0.00972277
2346	0.00955704
2358	0.00894937
2370	0.0104409
2382	0.0103304
2394	0.00966752
2406	0.0103304
2418	0.0110486
2430	0.0095018
2442	0.00801023
2454	0.00812072
2466	0.00834169
2478	0.00977801
2490	0.011822
2502	0.0151918
2514	0.0133136
2526	0.00999898
2538	0.00939131
2550	0.00961228
2562	0.0102752
2574	0.00955704
2586	0.00773402
2598	0.00723683
2610	0.00712635
2622	0.00712635
2634	0.00756829
2646	0.00894937
2658	0.00905985
2670	0.00773402
2682	0.00762353
2694	0.00789975
2706	0.00778926
2718	0.00817596
2730	0.00823121
2742	0.0074578
2754	0.00784451
2766	0.00767878
2778	0.00734732
2790	0.00789975
2802	0.00839694
2814	0.00795499
2826	0.0074578
2838	0.00823121
2850	0.00784451
2862	0.00756829
2874	0.00723683
2886	0.00690538
2898	0.00729208
2910	0.00850742
2922	0.00795499
2934	0.00812072
2946	0.00801023
2958	0.0070711
2970	0.0074578
2982	0.00729208
2994	0.00756829
3006	0.00955704
3018	0.0112696
3030	0.0119325
3042	0.0119325
3054	0.0117115
3066	0.0157443
3078	0.0354108
3090	0.0429791
3102	0.0202189
3114	0.0091151
3126	0.00778926
3138	0.00801023
3150	0.00955704
3162	0.00994374
3174	0.0091151
3186	0.00834169
3198	0.00861791
3210	0.00889412
3222	0.00845218
3234	0.00839694
3246	0.00789975
3258	0.00823121
3270	0.00856267
3282	0.011601
3294	0.0129821
3306	0.00905985
3318	0.00823121
3330	0.00762353
3342	0.00756829
3354	0.00756829
3366	0.00762353
3378	0.00734732
3390	0.00751305
3402	0.00718159
3414	0.00751305
3426	0.00701586
3438	0.00740256
3450	0.00712635
3462	0.00657392
3474	0.00823121
3486	0.00701586
3498	0.00767878
3510	0.00933607
3522	0.00883888
3534	0.0125954
3546	0.0226496
3558	0.158934
3570	0.535526
3582	0.285385
3594	0.045465
3606	0.0137003
3618	0.0100542
3630	0.00933607
3642	0.00817596
3654	0.00845218
3666	0.00812072
3678	0.00756829
3690	0.00839694
3702	0.00729208
3714	0.00646343
3726	0.00640819
3738	0.00635294
3750	0.0062977
3762	0.00784451
3774	0.00712635
3786	0.00778926
3798	0.00784451
3810	0.00635294
3822	0.00778926
3834	0.00867315
3846	0.0140317
3858	0.0134793
3870	0.0091151
3882	0.00740256
3894	0.00905985
3906	0.00856267
3918	0.00983325
3930	0.00972277
3942	0.00801023
3954	0.00933607
3966	0.00767878
