Infrared Spectrum: Benzenamine, 3-chloro-2-methyl-
Formula: C 7 H 8 Cl N
CAS: 87-60-5
Origin: Sadtler Research Labs Under US-EPA Contract
1/CM	ABSORBANCE
450	0.0112101
462	0.0155891
474	0.0253103
486	0.0252228
498	0.0319663
510	0.038272
522	0.0390602
534	0.0233836
546	0.019355
558	0.0185667
570	0.0178661
582	0.031003
594	0.0324918
606	0.0354695
618	0.0535108
630	0.0944977
642	0.09695
654	0.0879293
666	0.0883672
678	0.105095
690	0.178311
702	0.28542
714	0.136536
726	0.064283
738	0.0636699
750	0.123837
762	0.318087
774	0.400674
786	0.170604
798	0.0895933
810	0.0616556
822	0.0345937
834	0.0311781
846	0.0446653
858	0.12769
870	0.192761
882	0.0699756
894	0.0122611
906	0.00455411
918	0.000525474
930	0.00218947
942	0.00998401
954	0.0211941
966	0.0341558
978	0.0681365
990	0.126552
1002	0.225691
1014	0.310205
1026	0.209139
1038	0.118582
1050	0.0963369
1062	0.0571891
1074	0.0331049
1086	0.0434392
1098	0.117531
1110	0.110875
1122	0.0392354
1134	0.0234712
1146	0.0246973
1158	0.0253103
1170	0.0167276
1182	0.0175158
1194	0.0280253
1206	0.0674358
1218	0.0747049
1230	0.0295141
1242	0.0236463
1254	0.0394105
1266	0.0706763
1278	0.20546
1290	0.387537
1302	0.238215
1314	0.0492194
1326	0.0362577
1338	0.0298644
1350	0.0298644
1362	0.0320539
1374	0.0296893
1386	0.0390602
1398	0.0338055
1410	0.0329297
1422	0.0600792
1434	0.167626
1446	0.39612
1458	0.578634
1470	0.578021
1482	0.378166
1494	0.112101
1506	0.085915
1518	0.0916076
1530	0.0750552
1542	0.0930965
1554	0.14652
1566	0.220436
1578	0.422744
1590	0.460228
1602	0.340682
1614	0.508484
1626	0.87579
1638	0.491055
1650	0.146082
1662	0.075931
1674	0.0463293
1686	0.0374838
1698	0.0300396
1710	0.0302148
1722	0.0387099
1734	0.031003
1746	0.0171655
1758	0.0138375
1770	0.0104219
1782	0.00937095
1794	0.0119107
1806	0.0211065
1818	0.0211065
1830	0.0113853
1842	0.00980885
1854	0.00963369
1866	0.00928337
1878	0.0124362
1890	0.026011
1902	0.0328421
1914	0.0197929
1926	0.00998401
1938	0.00656843
1950	0.00578021
1962	0.00621811
1974	0.00595537
1986	0.00604295
1998	0.00648085
2010	0.00586779
2022	0.0054299
2034	0.00578021
2046	0.00586779
2058	0.00691874
2070	0.00840758
2082	0.00902064
2094	0.00823243
2106	0.00613053
2118	0.00490442
2130	0.00525474
2142	0.00691874
2154	0.00849516
2166	0.00683116
2178	0.00411621
2190	0.003328
2202	0.0037659
2214	0.0037659
2226	0.00306526
2238	0.00289011
2250	0.00359074
2262	0.00472927
2274	0.00402863
2286	0.00324042
2298	0.003328
2310	0.00534232
2322	0.00683116
2334	0.006656
2346	0.00630569
2358	0.00367832
2370	0.0037659
2382	0.00297769
2394	0.00341558
2406	0.00289011
2418	0.00218947
2430	0.00227705
2442	0.00280253
2454	0.00359074
2466	0.00315284
2478	0.00385348
2490	0.00578021
2502	0.00560506
2514	0.00236463
2526	8.7579e-05
2538	0.000437895
2550	0.00087579
2562	0.00306526
2574	0.00796969
2586	0.0105971
2598	0.0070939
2610	0.00367832
2622	0.00297769
2634	0.00324042
2646	0.00289011
2658	0.00306526
2670	0.00402863
2682	0.00394105
2694	0.00262737
2706	0.00227705
2718	0.00341558
2730	0.00586779
2742	0.00989643
2754	0.0119107
2766	0.00779453
2778	0.00472927
2790	0.00437895
2802	0.00534232
2814	0.006656
2826	0.00998401
2838	0.0138375
2850	0.0233836
2862	0.0489567
2874	0.0764565
2886	0.0804851
2898	0.0717272
2910	0.0812733
2922	0.124275
2934	0.144768
2946	0.1107
2958	0.0627941
2970	0.0372211
2982	0.0291638
2994	0.0297769
3006	0.0427386
3018	0.0772447
3030	0.123662
3042	0.114115
3054	0.0813609
3066	0.115254
3078	0.142316
3090	0.0778577
3102	0.0288135
3114	0.00937095
3126	0.00578021
3138	0.004992
3150	0.00411621
3162	0.00437895
3174	0.00437895
3186	0.0054299
3198	0.00674358
3210	0.00814485
3222	0.0070939
3234	0.00630569
3246	0.00516716
3258	0.0037659
3270	0.00262737
3282	0.000788211
3294	0.00192674
3306	0.00105095
3318	0.000350316
3330	0.000700632
3342	0.00087579
3354	0.00148884
3366	0.00218947
3378	0.003328
3390	0.00919579
3402	0.037659
3414	0.100891
3426	0.0821491
3438	0.0224202
3450	0.00884548
3462	0.00779453
3474	0.0147133
3486	0.0495697
3498	0.106846
3510	0.0845137
3522	0.0287259
3534	0.00998401
3546	0.00507958
3558	0.00315284
3570	0.00236463
3582	0.000963369
3594	0.000700632
3606	0.000788211
3618	0.000613053
3630	0.000350316
3642	0.00122611
3654	0.00175158
3666	0.00140126
3678	0.000963369
3690	0.00192674
3702	0.00192674
3714	0.00201432
3726	0.00105095
3738	0.00192674
3750	0.00122611
3762	0.00122611
3774	0.00175158
3786	0.000700632
3798	8.7579e-05
3810	0.00087579
3822	0.000437895
3834	0.001664
3846	0.00105095
3858	0.00315284
3870	0.00464169
3882	0.00262737
3894	0.00341558
3906	0.00253979
3918	0.00245221
3930	0.00157642
3942	0.00350316
3954	0.00271495
3966	0.00201432
