Infrared Spectrum: 1,3-Butadiene, 1,1,2,3,4,4-hexachloro-
Formula: C 4 Cl 6
CAS: 87-68-3
Origin: Sadtler Research Labs Under US-EPA Contract
1/CM	ABSORBANCE
450	0
462	0.0191168
474	0.0193149
486	0.0263476
498	0.0249609
510	0.0244656
522	0.0250599
534	0.025159
546	0.025258
558	0.0556667
570	0.038828
582	0.0294181
594	0.0299134
606	0.0266447
618	0.0262485
630	0.025159
642	0.0536856
654	0.501495
666	0.189881
678	0.0374413
690	0.0257533
702	0.0254561
714	0.0197111
726	0.0201074
738	0.0242675
750	0.0287248
762	0.0517046
774	0.0852829
786	0.147091
798	0.47703
810	0.296856
822	0.0818161
834	0.0793399
846	0.429287
858	0.956833
870	0.0928108
882	0.0605202
894	0.0569543
906	0.0362527
918	0.0477426
930	0.0956833
942	0.216327
954	0.15343
966	0.107767
978	0.492283
990	0.606786
1002	0.0793399
1014	0.0530913
1026	0.034965
1038	0.0354603
1050	0.0255552
1062	0.0208007
1074	0.0200083
1086	0.0199093
1098	0.0224846
1110	0.023277
1122	0.0215931
1134	0.0265457
1146	0.0350641
1158	0.0606192
1170	0.14095
1182	0.146496
1194	0.0807266
1206	0.0259514
1218	0.0266447
1230	0.0324887
1242	0.0324887
1254	0.0226827
1266	0.0205036
1278	0.0216922
1290	0.0186216
1302	0.0176311
1314	0.0198102
1326	0.0201074
1338	0.0188197
1350	0.0191168
1362	0.019414
1374	0.0198102
1386	0.019513
1398	0.0188197
1410	0.0197111
1422	0.019414
1434	0.0188197
1446	0.0204045
1458	0.0211969
1470	0.0184235
1482	0.0186216
1494	0.0186216
1506	0.0189187
1518	0.0235741
1530	0.0324887
1542	0.0803304
1554	0.186216
1566	0.32459
1578	0.140454
1590	0.0400166
1602	0.0590344
1614	0.0706234
1626	0.0336773
1638	0.0365498
1650	0.0215931
1662	0.0196121
1674	0.0205036
1686	0.0188197
1698	0.0185225
1710	0.0179282
1722	0.0169377
1734	0.0188197
1746	0.0179282
1758	0.0171358
1770	0.0185225
1782	0.0184235
1794	0.0191168
1806	0.0187206
1818	0.017532
1830	0.017532
1842	0.0182254
1854	0.0176311
1866	0.0177301
1878	0.0182254
1890	0.0188197
1902	0.0186216
1914	0.0192159
1926	0.0204045
1938	0.0197111
1950	0.0189187
1962	0.0184235
1974	0.0191168
1986	0.019414
1998	0.0183244
2010	0.0181263
2022	0.0178292
2034	0.0182254
2046	0.0178292
2058	0.017532
2070	0.017532
2082	0.017532
2094	0.0173339
2106	0.0178292
2118	0.017532
2130	0.017433
2142	0.0179282
2154	0.0177301
2166	0.0173339
2178	0.0176311
2190	0.017532
2202	0.017433
2214	0.017433
2226	0.017433
2238	0.0177301
2250	0.0184235
2262	0.0190178
2274	0.0186216
2286	0.0178292
2298	0.0178292
2310	0.0187206
2322	0.0192159
2334	0.0183244
2346	0.0179282
2358	0.0192159
2370	0.0170368
2382	0.0170368
2394	0.0177301
2406	0.0183244
2418	0.0183244
2430	0.0179282
2442	0.0178292
2454	0.0185225
2466	0.0184235
2478	0.0183244
2490	0.0182254
2502	0.0179282
2514	0.0182254
2526	0.0182254
2538	0.0178292
2550	0.0180273
2562	0.0181263
2574	0.0181263
2586	0.0184235
2598	0.0180273
2610	0.0179282
2622	0.0178292
2634	0.0179282
2646	0.0177301
2658	0.0179282
2670	0.0179282
2682	0.0178292
2694	0.0185225
2706	0.0182254
2718	0.0186216
2730	0.0192159
2742	0.0190178
2754	0.019414
2766	0.0198102
2778	0.0203055
2790	0.019513
2802	0.0187206
2814	0.0181263
2826	0.0180273
2838	0.0182254
2850	0.0181263
2862	0.0182254
2874	0.0183244
2886	0.0181263
2898	0.0183244
2910	0.0179282
2922	0.0182254
2934	0.0181263
2946	0.0180273
2958	0.0180273
2970	0.0182254
2982	0.0181263
2994	0.0181263
3006	0.0182254
3018	0.0177301
3030	0.0182254
3042	0.0185225
3054	0.0181263
3066	0.0181263
3078	0.0183244
3090	0.0178292
3102	0.0176311
3114	0.0181263
3126	0.0176311
3138	0.0180273
3150	0.0184235
3162	0.0188197
3174	0.0185225
3186	0.0181263
3198	0.0180273
3210	0.017532
3222	0.0181263
3234	0.0184235
3246	0.0180273
3258	0.0180273
3270	0.0182254
3282	0.0183244
3294	0.0180273
3306	0.0179282
3318	0.0180273
3330	0.0180273
3342	0.0177301
3354	0.0181263
3366	0.0183244
3378	0.0180273
3390	0.0181263
3402	0.0177301
3414	0.0182254
3426	0.0181263
3438	0.0184235
3450	0.0180273
3462	0.0182254
3474	0.0184235
3486	0.0182254
3498	0.0181263
3510	0.0184235
3522	0.0183244
3534	0.0187206
3546	0.0180273
3558	0.0184235
3570	0.0184235
3582	0.0188197
3594	0.0182254
3606	0.0189187
3618	0.0189187
3630	0.0185225
3642	0.0185225
3654	0.0187206
3666	0.019513
3678	0.0188197
3690	0.0191168
3702	0.0201074
3714	0.0193149
3726	0.0192159
3738	0.0191168
3750	0.0188197
3762	0.0192159
3774	0.0185225
3786	0.0188197
3798	0.019414
3810	0.0187206
3822	0.0197111
3834	0.0190178
3846	0.0199093
3858	0.0187206
3870	0.0199093
3882	0.0203055
3894	0.0186216
3906	0.0200083
3918	0.0198102
3930	0.0185225
3942	0.0190178
3954	0.0192159
3966	0.0191168
