Infrared Spectrum: Benzene, 1,2,3-trichloro-
Formula: C 6 H 3 Cl 3
CAS: 87-61-6
Origin: Sadtler Research Labs Under US-EPA Contract
1/CM	ABSORBANCE
450	0.0114298
462	0.0134265
474	0.00977727
486	0.0227907
498	0.0331876
510	0.068372
522	0.0580439
534	0.0151479
546	0.00351155
558	0.00137708
570	0.0025476
582	0.00633457
594	0.00316728
606	0.00750509
618	0.00626571
630	0.000826248
642	0.00240989
654	0.00234104
666	0.00227218
678	0.0142528
690	0.0685786
702	0.114642
714	0.0318105
726	0.0289187
738	0.0532241
750	0.0611424
762	0.244087
774	0.666782
786	0.68854
798	0.458912
810	0.0952251
822	0.0228595
834	0.0256825
846	0.0190037
858	0.00199677
870	0.00413124
882	0.00488863
894	0.00929529
906	0.00846904
918	0.00461322
930	0.00399353
942	0.0059903
954	0.0068854
966	0.0120494
978	0.00791821
990	0.00840019
1002	0.0258202
1014	0.0276793
1026	0.024512
1038	0.0503323
1050	0.0654113
1062	0.0251317
1074	0.0108101
1086	0.0201742
1098	0.0116363
1110	0.00330499
1122	0.00406239
1134	0.0167315
1146	0.125039
1158	0.341172
1170	0.206906
1182	0.0782181
1194	0.242573
1206	0.0917824
1218	0.0165938
1230	0.0130134
1242	0.0235481
1254	0.0285056
1266	0.00667884
1278	0.0114298
1290	0.0108101
1302	0.00578374
1314	0.00302958
1326	0.00137708
1338	0.00268531
1350	0.00647228
1362	0.00970841
1374	0.0108101
1386	0.0517094
1398	0.188385
1410	0.454918
1422	0.431646
1434	0.621476
1446	0.294351
1458	0.0409681
1470	0.0229284
1482	0.046683
1494	0.0316728
1506	0.0126691
1518	0.0130134
1530	0.012256
1542	0.0364926
1554	0.155817
1566	0.355631
1578	0.0731229
1590	0.00571488
1602	0.00950185
1614	0.00261645
1626	0.00144593
1638	0.009433
1650	0.0168004
1662	0.0246497
1674	0.0144593
1686	0.0052329
1698	0.00571488
1710	0.00420009
1722	0.00392468
1734	0.00722967
1746	0.00461322
1758	0.00543947
1770	0.0152167
1782	0.015079
1794	0.00578374
1806	0.00240989
1818	0.00185906
1830	0.00543947
1842	0.0148725
1854	0.0177643
1866	0.00571488
1878	0.00289187
1890	0.00316728
1902	0.00557717
1914	0.0165938
1926	0.021207
1938	0.0108789
1950	0.00619686
1962	0.00316728
1974	0.00206562
1986	0.00213447
1998	0.00130823
2010	0.00137708
2022	0.00151479
2034	0.00151479
2046	0.00158364
2058	0.00103281
2070	0.00103281
2082	0.00185906
2094	0.00117052
2106	0.00110166
2118	0.00158364
2130	0.00172135
2142	0.0025476
2154	0.00247874
2166	0.00158364
2178	0.00151479
2190	0.00158364
2202	0.00206562
2214	0.00213447
2226	0.00185906
2238	0.00137708
2250	0.0017902
2262	0.00103281
2274	0.00199677
2286	0.00392468
2298	0.00488863
2310	0.00605915
2322	0.00454436
2334	0.00144593
2346	0.00199677
2358	0.00261645
2370	0
2382	0.00130823
2394	0.00158364
2406	0.00144593
2418	0.00185906
2430	0.00227218
2442	0.00282301
2454	0.00282301
2466	0.00240989
2478	0.00323614
2490	0.00475093
2502	0.00592144
2514	0.00392468
2526	0.00185906
2538	0.00117052
2550	0.00151479
2562	0.0016525
2574	0.00199677
2586	0.00213447
2598	0.00234104
2610	0.00227218
2622	0.00247874
2634	0.00275416
2646	0.00316728
2658	0.00282301
2670	0.00199677
2682	0.00144593
2694	0.00123937
2706	0.00151479
2718	0.00192791
2730	0.00172135
2742	0.00123937
2754	0.000963956
2766	0.00123937
2778	0.000826248
2790	0.00144593
2802	0.00130823
2814	0.00130823
2826	0.000826248
2838	0.00103281
2850	0.000275416
2862	0.000481978
2874	0.000757394
2886	0.000481978
2898	0.00117052
2910	0.00117052
2922	0.00110166
2934	0.00151479
2946	0.00144593
2958	0.00172135
2970	0.0025476
2982	0.00447551
2994	0.00392468
3006	0.0017902
3018	0.0017902
3030	0.00199677
3042	0.00323614
3054	0.0101215
3066	0.0338762
3078	0.0440666
3090	0.0201054
3102	0.00488863
3114	0.00550832
3126	0.00771165
3138	0.00722967
3150	0.00268531
3162	0.00172135
3174	0.00172135
3186	0.00130823
3198	0.00137708
3210	0.00137708
3222	0.00172135
3234	0.00151479
3246	0.00151479
3258	0.00172135
3270	0.00137708
3282	0.00144593
3294	0.0016525
3306	0.00213447
3318	0.00137708
3330	0.00144593
3342	0.0017902
3354	0.0016525
3366	0.00144593
3378	0.00144593
3390	0.00172135
3402	0.00144593
3414	0.00192791
3426	0.00172135
3438	0.0016525
3450	0.0016525
3462	0.00172135
3474	0.00172135
3486	0.00206562
3498	0.00185906
3510	0.00144593
3522	0.00123937
3534	0.000895102
3546	0.00158364
3558	0.0017902
3570	0.00206562
3582	0.00227218
3594	0.00309843
3606	0.00192791
3618	0.0025476
3630	0.00247874
3642	0.00185906
3654	0.00213447
3666	0.00172135
3678	0.00371812
3690	0.0016525
3702	0.00220333
3714	0.00351155
3726	0.00234104
3738	0.00282301
3750	0.00302958
3762	0.00117052
3774	0.00206562
3786	0.00330499
3798	0.00468207
3810	0.00468207
3822	0.00392468
3834	0.00268531
3846	0.00289187
3858	0.00399353
3870	0.00392468
3882	0.00385582
3894	0.00110166
3906	0.00261645
3918	0.00378697
3930	0.00247874
3942	0.00234104
3954	0.00261645
3966	0.00240989
