Infrared Spectrum: Phenol, 2-chloro-6-methyl-
Formula: C 7 H 7 Cl O
CAS: 87-64-9
Origin: Sadtler Research Labs Under US-EPA Contract
1/CM	ABSORBANCE
450	0.0195498
462	0.00213569
474	0.00636601
486	0.00743385
498	0.00451781
510	0.00710528
522	0.00583208
534	0.0273944
546	0.0316657
558	0.00772135
570	0.00484638
582	0.00353211
594	0.00459995
606	0.0056678
618	0.0258747
630	0.0631261
642	0.0301872
654	0.00562673
666	0.00640708
678	0.00800885
690	0.00936419
702	0.0154838
714	0.0584851
726	0.097749
738	0.0707653
750	0.187284
762	0.26729
774	0.0880562
786	0.0134302
798	0.0187284
810	0.0201248
822	0.0380317
834	0.06481
846	0.10276
858	0.210612
870	0.0964347
882	0.0102678
894	0.00583208
906	0.00751599
918	0.00829634
930	0.00969276
942	0.0112945
954	0.0158123
966	0.0195498
978	0.0236158
990	0.0348282
1002	0.0359371
1014	0.0186462
1026	0.0159766
1038	0.0201659
1050	0.0197962
1062	0.0367585
1074	0.0764331
1086	0.0871937
1098	0.0793902
1110	0.0586083
1122	0.0681368
1134	0.154468
1146	0.130154
1158	0.0962294
1170	0.123788
1182	0.0809509
1194	0.0587315
1206	0.106251
1218	0.206135
1230	0.292877
1242	0.313865
1254	0.231887
1266	0.124733
1278	0.0990222
1290	0.098899
1302	0.0459584
1314	0.0662475
1326	0.16683
1338	0.178248
1350	0.0489977
1362	0.0126088
1374	0.0147856
1386	0.023164
1398	0.0165516
1410	0.011541
1422	0.0359782
1434	0.139888
1446	0.226876
1458	0.275751
1470	0.324297
1482	0.26154
1494	0.156645
1506	0.0743385
1518	0.0408246
1530	0.0223837
1542	0.016798
1554	0.0158945
1566	0.0194266
1578	0.0388121
1590	0.0646047
1602	0.0949151
1614	0.0767617
1626	0.0218498
1638	0.0130606
1650	0.0128963
1662	0.00685886
1674	0.00427138
1686	0.00344996
1698	0.00291604
1710	0.00402496
1722	0.00369639
1734	0.00229998
1746	0.0028339
1758	0.00492852
1770	0.00891241
1782	0.00788563
1794	0.00332675
1806	0.00250533
1818	0.00246426
1830	0.0072285
1842	0.00961061
1854	0.00418924
1866	0.00353211
1878	0.00443567
1890	0.00681779
1902	0.0102678
1914	0.00751599
1926	0.00447674
1938	0.00275176
1950	0.00188927
1962	0.0015607
1974	0.00119106
1986	0.00151963
1998	0.00188927
2010	0.00213569
2022	0.00184819
2034	0.00172498
2046	0.00164284
2058	0.00176605
2070	0.00279283
2082	0.00299818
2094	0.00262854
2106	0.00258747
2118	0.00234105
2130	0.00221783
2142	0.0022589
2154	0.00168391
2166	0.00131427
2178	0.00176605
2190	0.00147856
2202	0.00209462
2214	0.00176605
2226	0.0022589
2238	0.00324461
2250	0.00353211
2262	0.0031214
2274	0.00328568
2286	0.00344996
2298	0.00390174
2310	0.00414817
2322	0.00390174
2334	0.00373746
2346	0.00332675
2358	0.00299818
2370	0.00394282
2382	0.00303925
2394	0.00262854
2406	0.00365532
2418	0.00488745
2430	0.00517495
2442	0.00431245
2454	0.00451781
2466	0.00455888
2478	0.00402496
2490	0.0041071
2502	0.00414817
2514	0.00554459
2526	0.0053803
2538	0.00427138
2550	0.0028339
2562	0.00299818
2574	0.0025464
2586	0.00188927
2598	0.00246426
2610	0.00287497
2622	0.00295711
2634	0.00295711
2646	0.00357318
2658	0.00468209
2670	0.00394282
2682	0.00172498
2694	0.00143749
2706	0.00229998
2718	0.00258747
2730	0.00361425
2742	0.0038196
2754	0.00533923
2766	0.0028339
2778	0.00164284
2790	0.00205355
2802	0.00258747
2814	0.0031214
2826	0.0050928
2838	0.00611958
2850	0.0112945
2862	0.0257104
2874	0.0347461
2886	0.0289551
2898	0.0260801
2910	0.0297765
2922	0.0504763
2934	0.0846063
2946	0.0750367
2958	0.0475191
2970	0.0499834
2982	0.0487513
2994	0.0421799
3006	0.0222605
3018	0.0238212
3030	0.0517495
3042	0.0731475
3054	0.0571298
3066	0.0522834
3078	0.065344
3090	0.0572119
3102	0.0287497
3114	0.0107195
3126	0.00492852
3138	0.00398389
3150	0.00402496
3162	0.00377853
3174	0.00275176
3186	0.00266962
3198	0.00328568
3210	0.00217676
3222	0.00238212
3234	0.00332675
3246	0.0022589
3258	0.00451781
3270	0.00398389
3282	0.00299818
3294	0.00197141
3306	0.00234105
3318	0.00217676
3330	0.00287497
3342	0.00373746
3354	0.00406603
3366	0.00390174
3378	0.00386067
3390	0.00377853
3402	0.00262854
3414	0.00262854
3426	0.00320354
3438	0.00291604
3450	0.00435353
3462	0.00349103
3474	0.00258747
3486	0.00492852
3498	0.00320354
3510	0.00546244
3522	0.00505173
3534	0.00813206
3546	0.0101445
3558	0.0454656
3570	0.369803
3582	0.347543
3594	0.0449727
3606	0.00788563
3618	0.00603744
3630	0.0101856
3642	0.0338014
3654	0.0504352
3666	0.0374568
3678	0.0079267
3690	0.000739278
3702	0.00188927
3714	0.000328568
3726	0.000328568
3738	0.000328568
3750	0.00119106
3762	0.000328568
3774	0.000574994
3786	0.000328568
3798	0.00106785
3810	0.00123213
3822	0.000287497
3834	0.000780349
3846	0.000328568
3858	0.00279283
3870	0.000328568
3882	0.000328568
3894	0.00250533
3906	0.00562673
3918	0.00193034
3930	0.00082142
3942	0.000369639
3954	0.0028339
3966	0.00106785
