Infrared Spectrum: Benzenamine, 2-chloro-6-methyl-
Formula: C 7 H 8 Cl N
CAS: 87-63-8
Origin: Sadtler Research Labs Under US-EPA Contract
1/CM	ABSORBANCE
450	0.0373936
462	0.0300334
474	0.018443
486	0.0148052
498	0.013367
510	0.0142976
522	0.0245343
534	0.0285105
546	0.012944
558	0.0185276
570	0.0327406
582	0.0508452
594	0.0671732
606	0.0857008
618	0.102198
630	0.163365
642	0.100844
654	0.0473766
666	0.0669194
678	0.0731799
690	0.0991524
702	0.13773
714	0.215733
726	0.239421
738	0.223854
750	0.399148
762	0.381043
774	0.158373
786	0.0584593
798	0.048984
810	0.0534678
822	0.124871
834	0.170809
846	0.177408
858	0.127748
870	0.0345172
882	0.0192044
894	0.0164126
906	0.0145514
918	0.0136208
930	0.0165818
942	0.0218271
954	0.0228423
966	0.0270723
978	0.0307948
990	0.0461921
1002	0.0459383
1014	0.0292719
1026	0.0315562
1038	0.0390857
1050	0.0531294
1062	0.119034
1074	0.284852
1086	0.471651
1098	0.35194
1110	0.108881
1122	0.0208964
1134	0.00685268
1146	0.0102367
1158	0.0147206
1170	0.00981372
1182	0.00676808
1194	0.015482
1206	0.0157358
1218	0.0140438
1230	0.0242805
1242	0.083332
1254	0.100675
1266	0.0790173
1278	0.187391
1290	0.190437
1302	0.113619
1314	0.0697112
1326	0.00617587
1338	0.00270723
1350	0.000253803
1362	0.00380704
1374	0.0132824
1386	0.0236883
1398	0.015905
1410	0.0128594
1422	0.0394241
1434	0.169287
1446	0.320892
1458	0.44957
1470	0.780613
1482	0.747111
1494	0.26937
1506	0.0789327
1518	0.0435695
1530	0.0354478
1542	0.03604
1554	0.0549907
1566	0.088408
1578	0.139507
1590	0.16125
1602	0.206173
1614	0.520465
1626	0.753118
1638	0.445086
1650	0.16861
1662	0.0645506
1674	0.0398471
1686	0.0272415
1698	0.0249573
1710	0.0182738
1722	0.0164126
1734	0.0191198
1746	0.0173432
1758	0.015059
1770	0.0235191
1782	0.0252111
1794	0.0161588
1806	0.0117595
1818	0.0164972
1830	0.0325714
1842	0.0302026
1854	0.0132824
1866	0.015059
1878	0.0211502
1890	0.0340942
1902	0.0295257
1914	0.0173432
1926	0.0153128
1938	0.0136208
1950	0.0118441
1962	0.0113365
1974	0.0127748
1986	0.0135362
1998	0.0136208
2010	0.0131978
2022	0.0130286
2034	0.0121825
2046	0.0125209
2058	0.0128594
2070	0.0131132
2082	0.0135362
2094	0.014213
2106	0.013367
2118	0.0130286
2130	0.0128594
2142	0.0139592
2154	0.013367
2166	0.0138746
2178	0.0136208
2190	0.0132824
2202	0.0127748
2214	0.0131132
2226	0.0139592
2238	0.015059
2250	0.0141284
2262	0.0143822
2274	0.0138746
2286	0.0151436
2298	0.0168356
2310	0.0183584
2322	0.0173432
2334	0.0153128
2346	0.01379
2358	0.0142976
2370	0.0105751
2382	0.0130286
2394	0.0141284
2406	0.0141284
2418	0.0137054
2430	0.0143822
2442	0.0153128
2454	0.0144668
2466	0.0139592
2478	0.013367
2490	0.0137054
2502	0.0116749
2514	0.0117595
2526	0.012944
2538	0.015482
2550	0.0198812
2562	0.0198812
2574	0.0162434
2586	0.015482
2598	0.0176816
2610	0.0218271
2622	0.0194582
2634	0.0148898
2646	0.0147206
2658	0.0155666
2670	0.0151436
2682	0.01379
2694	0.0137054
2706	0.0139592
2718	0.0148052
2730	0.018866
2742	0.0254649
2754	0.0236883
2766	0.0165818
2778	0.0145514
2790	0.0140438
2802	0.016328
2814	0.020981
2826	0.0235191
2838	0.0261417
2850	0.0422159
2862	0.105074
2874	0.140015
2886	0.106174
2898	0.098814
2910	0.121233
2922	0.177239
2934	0.189083
2946	0.162519
2958	0.0951761
2970	0.0769869
2982	0.132401
2994	0.110574
3006	0.047715
3018	0.064466
3030	0.12927
3042	0.114296
3054	0.0788481
3066	0.116242
3078	0.181046
3090	0.133754
3102	0.0477996
3114	0.0238575
3126	0.0190352
3138	0.0189506
3150	0.0190352
3162	0.0181892
3174	0.01802
3186	0.0190352
3198	0.0219117
3210	0.019289
3222	0.0158204
3234	0.0166664
3246	0.0148898
3258	0.012944
3270	0.0144668
3282	0.0137054
3294	0.0141284
3306	0.0149744
3318	0.0139592
3330	0.0136208
3342	0.0126055
3354	0.0153128
3366	0.0165818
3378	0.0212349
3390	0.0325714
3402	0.10076
3414	0.176055
3426	0.121741
3438	0.0474612
3450	0.0225885
3462	0.0246189
3474	0.0353632
3486	0.0774945
3498	0.194413
3510	0.20981
3522	0.124956
3534	0.0521142
3546	0.0236037
3558	0.0178508
3570	0.0149744
3582	0.0164972
3594	0.015059
3606	0.0158204
3618	0.0134516
3630	0.0117595
3642	0.0162434
3654	0.0142976
3666	0.0161588
3678	0.0130286
3690	0.0141284
3702	0.0174278
3714	0.0170894
3726	0.015482
3738	0.0122671
3750	0.013367
3762	0.0143822
3774	0.0140438
3786	0.0158204
3798	0.0156512
3810	0.0126901
3822	0.0109135
3834	0.0108289
3846	0.01379
3858	0.014213
3870	0.0153128
3882	0.016328
3894	0.0147206
3906	0.0143822
3918	0.0148052
3930	0.0161588
3942	0.015905
3954	0.0130286
3966	0.012944
