Infrared Spectrum: Benzene, hexamethyl-
Formula: C 12 H 18
CAS: 87-85-4
Origin: Sadtler Research Labs Under US-EPA Contract
1/CM	ABSORBANCE
450	0.00723996
462	0.00401778
474	0.00525096
486	0.00473382
498	0.00640458
510	0.0045747
522	0.0051714
534	0.00807534
546	0.00365976
558	0.00648414
570	0.00608634
582	0.0037791
594	0.00342108
606	0.00310284
618	0.00373932
630	0.00469404
642	0.00473382
654	0.00314262
666	0.0023868
678	0.00131274
690	0.0037791
702	0.00393822
714	0.00354042
726	0.00226746
738	0.00202878
750	0.0011934
762	0.0025857
774	0.00453492
786	0.0164291
798	0.0170656
810	0.0095472
822	0.00751842
834	0.0049725
846	0.00425646
858	0.00485316
870	0.00513162
882	0.00485316
894	0.0047736
906	0.00572832
918	0.00700128
930	0.00819468
942	0.00588744
954	0.00612612
966	0.00771732
978	0.00910962
990	0.0118544
1002	0.0140821
1014	0.0167474
1026	0.0223564
1038	0.0319036
1050	0.0554931
1062	0.0893857
1074	0.0710471
1086	0.0337334
1098	0.0176623
1110	0.0118147
1122	0.00926874
1134	0.0077571
1146	0.00739908
1158	0.00648414
1170	0.00660348
1182	0.00664326
1194	0.00640458
1206	0.00652392
1218	0.0061659
1230	0.00612612
1242	0.00648414
1254	0.00688194
1266	0.00739908
1278	0.0081549
1290	0.0104224
1302	0.0111384
1314	0.0113771
1326	0.011934
1338	0.0140423
1350	0.0152755
1362	0.0182988
1374	0.0240271
1386	0.0393026
1398	0.0438773
1410	0.0538223
1422	0.0804352
1434	0.098177
1446	0.0973814
1458	0.0902608
1470	0.0817479
1482	0.0741499
1494	0.0678249
1506	0.0601076
1518	0.050083
1530	0.0409734
1542	0.0331367
1554	0.0288803
1566	0.0240271
1578	0.0219586
1590	0.0192137
1602	0.0173441
1614	0.0155142
1626	0.0125705
1638	0.0109793
1650	0.00926874
1662	0.0087516
1674	0.00668304
1686	0.00600678
1698	0.0053703
1710	0.00883116
1722	0.00485316
1734	0.003978
1746	0.0049725
1758	0.00588744
1770	0.0055692
1782	0.00572832
1794	0.0045747
1806	0.0027846
1818	0.00194922
1830	0.00135252
1842	0.00194922
1854	0.00151164
1866	0.0013923
1878	0.00143208
1890	0.0009945
1902	0.0009945
1914	0.0011934
1926	0.00123318
1938	0.00171054
1950	0.0021879
1962	0.00194922
1974	0.00147186
1986	0.00147186
1998	0.00143208
2010	0.00147186
2022	0.00135252
2034	0.00095472
2046	0.0009945
2058	0.00095472
2070	0.00115362
2082	0.00167076
2094	0.00127296
2106	0.00063648
2118	0.00071604
2130	0.0003978
2142	0.00063648
2154	0.00123318
2166	0.00083538
2178	0.00087516
2190	0.00083538
2202	0.00091494
2214	0.0005967
2226	0.0005967
2238	0.00047736
2250	0.00035802
2262	0.0001989
2274	0.00027846
2286	0.00035802
2298	0.0007956
2310	0.00103428
2322	0.00063648
2334	0.0009945
2346	0.00175032
2358	0.00123318
2370	0.00175032
2382	0.00266526
2394	0.0023868
2406	0.00230724
2418	0.0023868
2430	0.00282438
2442	0.00350064
2454	0.00350064
2466	0.00361998
2478	0.00346086
2490	0.00330174
2502	0.00302328
2514	0.00302328
2526	0.00250614
2538	0.00214812
2550	0.00230724
2562	0.00226746
2574	0.00167076
2586	0.00206856
2598	0.00242658
2610	0.00230724
2622	0.00262548
2634	0.0025857
2646	0.00262548
2658	0.00262548
2670	0.00330174
2682	0.00429624
2694	0.00481338
2706	0.00548964
2718	0.00891072
2730	0.0167872
2742	0.0200889
2754	0.0153551
2766	0.0153551
2778	0.0172247
2790	0.0185375
2802	0.0212425
2814	0.0270106
2826	0.0368363
2838	0.0522709
2850	0.0821855
2862	0.144362
2874	0.236055
2886	0.284626
2898	0.282239
2910	0.294173
2922	0.334311
2934	0.387736
2946	0.386542
2958	0.306306
2970	0.222012
2982	0.177061
2994	0.163814
3006	0.168906
3018	0.17547
3030	0.168946
3042	0.145754
3054	0.113453
3066	0.0845723
3078	0.0607043
3090	0.0434398
3102	0.0325798
3114	0.0247829
3126	0.0191342
3138	0.0147186
3150	0.0106213
3162	0.0083538
3174	0.00680238
3186	0.0051714
3198	0.00425646
3210	0.00373932
3222	0.00266526
3234	0.00266526
3246	0.00222768
3258	0.00214812
3270	0.00214812
3282	0.00226746
3294	0.0021879
3306	0.0021879
3318	0.00202878
3330	0.00194922
3342	0.00226746
3354	0.00206856
3366	0.00210834
3378	0.00250614
3390	0.00330174
3402	0.00306306
3414	0.0033813
3426	0.00342108
3438	0.00334152
3450	0.00234702
3462	0.00314262
3474	0.0031824
3486	0.0031824
3498	0.00310284
3510	0.0029835
3522	0.0027846
3534	0.00294372
3546	0.00286416
3558	0.00270504
3570	0.00354042
3582	0.00361998
3594	0.001989
3606	0.0025857
3618	0.00230724
3630	0.00127296
3642	0.00222768
3654	0.00226746
3666	0.00214812
3678	0.0005967
3690	0.00103428
3702	0.00210834
3714	0.0011934
3726	0.00147186
3738	0.00107406
3750	0.0021879
3762	0.00091494
3774	0.00047736
3786	0.00230724
3798	0.00031824
3810	0.00270504
3822	3.978e-05
3834	0.00095472
3846	0.0013923
3858	0.0029835
3870	0.00131274
3882	0.0027846
3894	0.00274482
3906	0.0033813
3918	0.00143208
3930	0.00206856
3942	0.00214812
3954	0.00262548
3966	0.00302328
