Infrared Spectrum: Tartaric acid, diethyl ester
Formula: C 8 H 14 O 6
CAS: 87-91-2
Origin: Sadtler Research Labs Under US-EPA Contract
1/CM	ABSORBANCE
450	0.0394009
462	0.0201088
474	0.0193943
486	0.0124531
498	0.0139843
510	0.0104116
522	0.0111262
534	0.0077577
546	0.00867638
558	0.0106158
570	0.0140864
582	0.0224565
594	0.0448109
606	0.0536915
618	0.0371553
630	0.0239876
642	0.0198025
654	0.0194963
666	0.0200067
678	0.0215378
690	0.0236814
702	0.0254167
714	0.0280706
726	0.0178631
738	0.00969713
750	0.0069411
762	0.00714525
774	0.0105137
786	0.00765563
798	0.000306225
810	0.00418507
822	0.008166
834	0.0112283
846	0.0180673
858	0.0425653
870	0.0671653
882	0.0276623
894	0.0183735
906	0.0155154
918	0.0237835
930	0.0232731
942	0.0199046
954	0.016332
966	0.0177611
978	0.0207212
990	0.0253146
1002	0.0467504
1014	0.118305
1026	0.196494
1038	0.154848
1050	0.101769
1062	0.110547
1074	0.183837
1086	0.331131
1098	0.471995
1110	0.355017
1122	0.352465
1134	0.311227
1146	0.159135
1158	0.125961
1170	0.157604
1182	0.238855
1194	0.425244
1206	0.503842
1218	0.527422
1230	0.600099
1242	0.697376
1254	0.854266
1266	0.618472
1278	0.350526
1290	0.275194
1302	0.237937
1314	0.164137
1326	0.0933986
1338	0.0650218
1350	0.0527728
1362	0.0741065
1374	0.129329
1386	0.0950318
1398	0.08707
1410	0.0753314
1422	0.0592035
1434	0.0478732
1446	0.048996
1458	0.0551205
1470	0.0641031
1482	0.0536915
1494	0.0257229
1506	0.0193943
1518	0.0160258
1530	0.013576
1542	0.0144946
1554	0.0116366
1566	0.0103096
1578	0.0102075
1590	0.0101054
1602	0.0093909
1614	0.00969713
1626	0.0115345
1638	0.012249
1650	0.0134739
1662	0.0120448
1674	0.0162299
1686	0.0226607
1698	0.0321536
1710	0.0497105
1722	0.0856409
1734	0.161891
1746	0.425755
1758	1.01218
1770	0.566822
1782	0.135454
1794	0.0627761
1806	0.0318474
1818	0.0225586
1830	0.0193943
1842	0.0145967
1854	0.0101054
1866	0.0093909
1878	0.00888053
1890	0.00969713
1902	0.008166
1914	0.0061245
1926	0.00459338
1938	0.00377678
1950	0.0036747
1962	0.00316432
1974	0.00296018
1986	0.00224565
1998	0.00255187
2010	0.00224565
2022	0.00234773
2034	0.00214357
2046	0.00265395
2058	0.00275603
2070	0.00347055
2082	0.00398092
2094	0.00398092
2106	0.00357262
2118	0.0028581
2130	0.00255187
2142	0.00214357
2154	0.0016332
2166	0.00173528
2178	0.00173528
2190	0.00193943
2202	0.00214357
2214	0.00173528
2226	0.0016332
2238	0.00132697
2250	0.0008166
2262	0.0008166
2274	0.000306225
2286	0.00020415
2298	0.000306225
2310	0.0008166
2322	0.00061245
2334	0.00061245
2346	0.00173528
2358	0.000714525
2370	0.00153112
2382	0.00234773
2394	0.00193943
2406	0.0020415
2418	0.00132697
2430	0.00132697
2442	0.00102075
2454	0.00112283
2466	0.0012249
2478	0.00102075
2490	0.00112283
2502	0.0012249
2514	0.00112283
2526	0.00102075
2538	0.000714525
2550	0.000714525
2562	0.000306225
2574	0.00061245
2586	0.000306225
2598	0.000510375
2610	0.0004083
2622	0.0004083
2634	0.000714525
2646	0.00020415
2658	0.000102075
2670	0.00020415
2682	0.000510375
2694	0
2706	0.000102075
2718	0.00020415
2730	0.000918675
2742	0.00102075
2754	0.00153112
2766	0.00224565
2778	0.0028581
2790	0.0032664
2802	0.00306225
2814	0.00428715
2826	0.0061245
2838	0.0073494
2850	0.00867638
2862	0.0110241
2874	0.0167403
2886	0.032664
2898	0.0349097
2910	0.0485877
2922	0.0674716
2934	0.0856409
2946	0.110649
2958	0.0756376
2970	0.0827828
2982	0.154337
2994	0.198842
3006	0.108097
3018	0.0579786
3030	0.0266416
3042	0.0136781
3054	0.008166
3066	0.00592035
3078	0.00377678
3090	0.00306225
3102	0.00255187
3114	0.00183735
3126	0.00234773
3138	0.00214357
3150	0.00193943
3162	0.0020415
3174	0.00173528
3186	0.0020415
3198	0.00173528
3210	0.0020415
3222	0.00112283
3234	0.00142905
3246	0.000918675
3258	0.000510375
3270	0.00061245
3282	0.000714525
3294	0.00020415
3306	0.00061245
3318	0.0008166
3330	0.000714525
3342	0.00112283
3354	0.0012249
3366	0.00132697
3378	0.0016332
3390	0.00132697
3402	0.00173528
3414	0.00183735
3426	0.00173528
3438	0.0020415
3450	0.0024498
3462	0.00347055
3474	0.0053079
3486	0.00877845
3498	0.0138822
3510	0.0166382
3522	0.0236814
3534	0.0414424
3546	0.084416
3558	0.185062
3570	0.158625
3582	0.0747189
3594	0.0399113
3606	0.0277644
3618	0.04624
3630	0.0314391
3642	0.0116366
3654	0.0057162
3666	0.0024498
3678	0.000714525
3690	0
3702	0.00112283
3714	0
3726	0.000510375
3738	0.00020415
3750	0
3762	0.000714525
3774	0
3786	0.00020415
3798	0.0004083
3810	0.0012249
3822	0.00102075
3834	0.000918675
3846	0.0008166
3858	0.000306225
3870	0
3882	0.00061245
3894	0.000102075
3906	0.0008166
3918	0
3930	0
3942	0
3954	0
3966	0
