Infrared Spectrum: Dibutyl tartrate
Formula: C 12 H 22 O 6
CAS: 87-92-3
Origin: Sadtler Research Labs Under US-EPA Contract
1/CM	ABSORBANCE
450	0
462	0.0642015
474	0.0344282
486	0.0447039
498	0.0406639
510	0.0415422
522	0.0671877
534	0.0314421
546	0.0588441
558	0.0520814
570	0.0484805
582	0.0591076
594	0.0708764
606	0.067012
618	0.0584928
630	0.0595467
642	0.0506762
654	0.0478657
666	0.0414543
678	0.0500614
690	0.0505884
702	0.0622693
714	0.0465483
726	0.0494466
738	0.0516423
750	0.0444405
762	0.0380291
774	0.0475144
786	0.0432987
798	0.0422448
810	0.0331108
822	0.0331108
834	0.046197
846	0.0526084
858	0.0412787
870	0.0427717
882	0.050237
894	0.0402248
906	0.0433865
918	0.0418935
930	0.059898
942	0.0901983
954	0.10548
966	0.104778
978	0.0723694
990	0.0814156
1002	0.104075
1014	0.12006
1026	0.118039
1038	0.11479
1050	0.131389
1062	0.178377
1074	0.243808
1086	0.350078
1098	0.391796
1110	0.294133
1122	0.344897
1134	0.308448
1146	0.216933
1158	0.208765
1170	0.238802
1182	0.326365
1194	0.455383
1206	0.480238
1218	0.486825
1230	0.527577
1242	0.618829
1254	0.670998
1266	0.502546
1278	0.378622
1290	0.283418
1302	0.20692
1314	0.157825
1326	0.117776
1338	0.0922184
1350	0.0841383
1362	0.0856313
1374	0.0939749
1386	0.12208
1398	0.111716
1410	0.0872122
1422	0.0751799
1434	0.0729842
1446	0.085807
1458	0.114175
1470	0.130335
1482	0.0910766
1494	0.062972
1506	0.0524327
1518	0.0459335
1530	0.0414543
1542	0.0392587
1554	0.0360091
1566	0.0339012
1578	0.0379413
1590	0.0362726
1602	0.0366239
1614	0.0428596
1626	0.0328473
1638	0.0409274
1650	0.0385561
1662	0.0389952
1674	0.036536
1686	0.046197
1698	0.0461092
1710	0.0691198
1722	0.13622
1734	0.250658
1746	0.516511
1758	0.87827
1770	0.426927
1782	0.16854
1794	0.0968732
1806	0.0651676
1818	0.0531353
1830	0.0468118
1842	0.0414543
1854	0.0367117
1866	0.0353065
1878	0.0346038
1890	0.0346917
1902	0.034516
1914	0.0343404
1926	0.0334621
1938	0.0331986
1950	0.0334621
1962	0.0335499
1974	0.0336377
1986	0.0334621
1998	0.0335499
2010	0.0337256
2022	0.0342525
2034	0.034516
2046	0.0343404
2058	0.0344282
2070	0.0346917
2082	0.0348673
2094	0.0346038
2106	0.0344282
2118	0.0342525
2130	0.0341647
2142	0.0336377
2154	0.033989
2166	0.0338134
2178	0.0339012
2190	0.0340769
2202	0.0336377
2214	0.0334621
2226	0.0329351
2238	0.0329351
2250	0.0327595
2262	0.0331108
2274	0.0336377
2286	0.0344282
2298	0.0356578
2310	0.0367995
2322	0.0361847
2334	0.0353943
2346	0.0367995
2358	0.0364482
2370	0.0346917
2382	0.0364482
2394	0.0346038
2406	0.0353943
2418	0.0352186
2430	0.0346038
2442	0.0348673
2454	0.0346038
2466	0.0346917
2478	0.0347795
2490	0.0347795
2502	0.0347795
2514	0.0346038
2526	0.035043
2538	0.033989
2550	0.033989
2562	0.0342525
2574	0.0349551
2586	0.0351308
2598	0.0344282
2610	0.0349551
2622	0.0353065
2634	0.0358334
2646	0.0367995
2658	0.036536
2670	0.0379413
2682	0.0383804
2694	0.0387317
2706	0.0393465
2718	0.0396978
2730	0.0406639
2742	0.0422448
2754	0.0446161
2766	0.0447039
2778	0.0454066
2790	0.0468996
2802	0.0501492
2814	0.0544527
2826	0.0611276
2838	0.0693833
2850	0.0884418
2862	0.114966
2874	0.15923
2886	0.205603
2898	0.183295
2910	0.199192
2922	0.247496
2934	0.295011
2946	0.354733
2958	0.348761
2970	0.485595
2982	0.320217
2994	0.164588
3006	0.0996836
3018	0.0699103
3030	0.057878
3042	0.0521692
3054	0.0473388
3066	0.0444405
3078	0.0432987
3090	0.0418057
3102	0.0422448
3114	0.0405761
3126	0.0398735
3138	0.0395221
3150	0.0391708
3162	0.0388195
3174	0.03961
3186	0.0384682
3198	0.03961
3210	0.0392587
3222	0.0392587
3234	0.0396978
3246	0.0402248
3258	0.0398735
3270	0.0406639
3282	0.0392587
3294	0.0386439
3306	0.0382047
3318	0.0382926
3330	0.0381169
3342	0.0360969
3354	0.0354821
3366	0.0353065
3378	0.0342525
3390	0.033989
3402	0.0337256
3414	0.033989
3426	0.0326716
3438	0.0343404
3450	0.035043
3462	0.0349551
3474	0.0359212
3486	0.03961
3498	0.0427717
3510	0.0448796
3522	0.0503249
3534	0.0657824
3546	0.0980149
3558	0.150096
3570	0.139206
3582	0.0895835
3594	0.0623572
3606	0.0551554
3618	0.0731599
3630	0.053838
3642	0.0405761
3654	0.0364482
3666	0.0376778
3678	0.0353065
3690	0.0344282
3702	0.0328473
3714	0.0317055
3726	0.0346038
3738	0.0346917
3750	0.0331986
3762	0.033023
3774	0.034516
3786	0.0342525
3798	0.0338134
3810	0.0351308
3822	0.0335499
3834	0.0341647
3846	0.0332864
3858	0.0338134
3870	0.0352186
3882	0.0352186
3894	0.0354821
3906	0.034516
3918	0.0369752
3930	0.0342525
3942	0.0344282
3954	0.0334621
3966	0.0333743
