Infrared Spectrum: Phosphoramidic acid, dibutyl ester
Formula: C 8 H 20 N O 3 P
CAS: 870-52-0
Origin: Sadtler Research Labs Under US-EPA Contract
1/CM	ABSORBANCE
450	0.0581096
462	0.0787121
474	0.0619584
486	0.0719955
498	0.0470159
510	0.0551664
522	0.0537325
534	0.0584869
546	0.0677694
558	0.0458839
570	0.0288284
582	0.0267908
594	0.0166782
606	0.00633923
618	0.018263
630	0.020678
642	0.020527
654	0.011471
666	0.0173574
678	0.0121502
690	0.0138859
702	0.024074
714	0.0390919
726	0.0426389
738	0.0626376
750	0.0426389
762	0.0424125
774	0.0498082
786	0.0611283
798	0.0689768
810	0.11154
822	0.10671
834	0.0933527
846	0.0884473
858	0.0694296
870	0.0663355
882	0.0620339
894	0.0962204
906	0.139086
918	0.147312
930	0.159537
942	0.112144
954	0.159537
966	0.266172
978	0.296812
990	0.343903
1002	0.358317
1014	0.445859
1026	0.684259
1038	0.683203
1050	0.491366
1062	0.436048
1074	0.36277
1086	0.231004
1098	0.139538
1110	0.0978052
1122	0.103767
1134	0.0794668
1146	0.0677694
1158	0.0665619
1170	0.0518458
1182	0.0523741
1194	0.0557701
1206	0.0579587
1218	0.0749387
1230	0.098409
1242	0.109352
1254	0.10671
1266	0.125954
1278	0.129501
1290	0.12769
1302	0.134709
1314	0.089202
1326	0.0470914
1338	0.0270172
1350	0.0164518
1362	0.0147915
1374	0.0193196
1386	0.0359978
1398	0.0332055
1410	0.0140369
1422	0.0158481
1434	0.0231684
1446	0.0264135
1458	0.0466386
1470	0.0561474
1482	0.0356204
1494	0.0193196
1506	0.0143387
1518	0.011471
1530	0.0084523
1542	0.00958431
1554	0.00792403
1566	0.00618829
1578	0.00641469
1590	0.00588643
1602	0.00935791
1614	0.0119993
1626	0.0173574
1638	0.0110182
1650	0.0124521
1662	0.00747123
1674	0.00935791
1686	0.010188
1698	0.00988618
1710	0.0104899
1722	0.0110182
1734	0.0126785
1746	0.0126785
1758	0.0146406
1770	0.0144142
1782	0.0111691
1794	0.00898057
1806	0.00875417
1818	0.00716937
1830	0.00558456
1842	0.00369788
1854	0.00309415
1866	0.00467895
1878	0.00264135
1890	0.00316961
1902	0.00271681
1914	0.00196214
1926	0.00264135
1938	0.00135841
1950	0.000377335
1962	0.000905604
1974	0.000301868
1986	0.000830137
1998	0.000226401
2010	0
2022	0.000981071
2034	0.000981071
2046	0.000830137
2058	0.000981071
2070	0.00128294
2082	0.00135841
2094	0.00166027
2106	0.00203761
2118	0.00233948
2130	0.00226401
2142	0.00309415
2154	0.00309415
2166	0.00362242
2178	0.00377335
2190	0.00430162
2202	0.00475442
2214	0.00490536
2226	0.00550909
2238	0.00641469
2250	0.0070939
2262	0.00792403
2274	0.00882964
2286	0.0110936
2298	0.0135086
2310	0.0151689
2322	0.0135841
2334	0.0130558
2346	0.013735
2358	0.0145651
2370	0.0131313
2382	0.0141878
2394	0.00935791
2406	0.00905604
2418	0.00867871
2430	0.0082259
2442	0.00762217
2454	0.00679203
2466	0.0068675
2478	0.00656563
2490	0.00626376
2502	0.00671656
2514	0.0070939
2526	0.00762217
2538	0.00815044
2550	0.00852777
2562	0.00935791
2574	0.0100371
2586	0.0113955
2598	0.0120747
2610	0.0125275
2622	0.0138859
2634	0.0140369
2646	0.0147915
2658	0.0158481
2670	0.0163009
2682	0.0178102
2694	0.0180366
2706	0.0187158
2718	0.0196214
2730	0.0212817
2742	0.022791
2754	0.0245268
2766	0.0249796
2778	0.0252814
2790	0.0262625
2802	0.0282247
2814	0.030866
2826	0.036677
2838	0.0458085
2850	0.0655808
2862	0.0885228
2874	0.132143
2886	0.160669
2898	0.156896
2910	0.17931
2922	0.199082
2934	0.23108
2946	0.271228
2958	0.301113
2970	0.372656
2982	0.232816
2994	0.109352
3006	0.0611283
3018	0.0426389
3030	0.0333564
3042	0.0282247
3054	0.0245268
3066	0.0227156
3078	0.020678
3090	0.0188668
3102	0.0174329
3114	0.0156217
3126	0.0141878
3138	0.0132822
3150	0.0122257
3162	0.0113955
3174	0.0116219
3186	0.010339
3198	0.0109427
3210	0.00943338
3222	0.00913151
3234	0.00860324
3246	0.00815044
3258	0.00739577
3270	0.00694296
3282	0.00747123
3294	0.00694296
3306	0.00649016
3318	0.00611283
3330	0.00913151
3342	0.00649016
3354	0.00573549
3366	0.00618829
3378	0.00694296
3390	0.00626376
3402	0.00641469
3414	0.00671656
3426	0.00558456
3438	0.00716937
3450	0.00701843
3462	0.00573549
3474	0.00701843
3486	0.00626376
3498	0.00573549
3510	0.00566002
3522	0.00626376
3534	0.00535816
3546	0.00701843
3558	0.00460349
3570	0.00988618
3582	0.00498082
3594	0.00792403
3606	0.00490536
3618	0.00701843
3630	0.0105654
3642	0.00943338
3654	0.0196214
3666	0.0390919
3678	0.0332055
3690	0.0117729
3702	0.00626376
3714	0.0073203
3726	0.00505629
3738	0.0068675
3750	0.0079995
3762	0.00430162
3774	0.00543362
3786	0.00566002
3798	0.0073203
3810	0.00641469
3822	0.0077731
3834	0.00618829
3846	0.00596189
3858	0.00603736
3870	0.00860324
3882	0.00633923
3894	0.00656563
3906	0.00784857
3918	0.00875417
3930	0.00482989
3942	0.00875417
3954	0.00769763
3966	0.00807497
