Infrared Spectrum: 1-Decene
Formula: C 10 H 20
CAS: 872-05-9
Origin: Sadtler Research Labs Under US-EPA Contract
1/CM	ABSORBANCE
450	0
462	0.0183556
474	0.0226484
486	0.010214
498	0.0227965
510	0.0285696
522	0.0233886
534	0.0223524
546	0.0278295
558	0.0241287
570	0.0248689
582	0.0195398
594	0.0262011
606	0.0213162
618	0.0331585
630	0.0447048
642	0.0386356
654	0.0324184
666	0.0279775
678	0.025461
690	0.0272373
702	0.0285696
714	0.0386356
726	0.0415961
738	0.0362671
750	0.0327144
762	0.0297538
774	0.0273854
786	0.0245728
798	0.0276814
810	0.025757
822	0.0267932
834	0.0270893
846	0.0301979
858	0.0330105
870	0.0378954
882	0.0455929
894	0.0640966
906	0.149213
918	0.193918
930	0.0777152
942	0.0519582
954	0.0473693
966	0.0473693
978	0.056103
990	0.097107
1002	0.0796396
1014	0.0519582
1026	0.0420402
1038	0.0349348
1050	0.0318262
1062	0.030494
1074	0.0294578
1086	0.0288657
1098	0.0285696
1110	0.0284216
1122	0.0278295
1134	0.0276814
1146	0.0266452
1158	0.0264972
1170	0.0269413
1182	0.0270893
1194	0.0262011
1206	0.025461
1218	0.0244248
1230	0.025609
1242	0.0267932
1254	0.0282735
1266	0.0284216
1278	0.0313821
1290	0.0347868
1302	0.0393757
1314	0.0371553
1326	0.035971
1338	0.0417442
1350	0.0528464
1362	0.0498858
1374	0.0479614
1386	0.0526983
1398	0.0383395
1410	0.0386356
1422	0.0448528
1434	0.056103
1446	0.0975511
1458	0.131154
1470	0.122864
1482	0.0617281
1494	0.0324184
1506	0.0259051
1518	0.0222043
1530	0.0210201
1542	0.0216122
1554	0.0199839
1566	0.0182076
1578	0.0192438
1590	0.0180595
1602	0.0198359
1614	0.0250169
1626	0.0344908
1638	0.0788995
1650	0.0759389
1662	0.0285696
1674	0.0208721
1686	0.0198359
1698	0.0201319
1710	0.0245728
1722	0.0226484
1734	0.0195398
1746	0.0199839
1758	0.0198359
1770	0.0189477
1782	0.0182076
1794	0.0171714
1806	0.0176155
1818	0.0217603
1830	0.0315302
1842	0.0213162
1854	0.0158391
1866	0.0145068
1878	0.0134706
1890	0.0139147
1902	0.0137667
1914	0.0130266
1926	0.0133226
1938	0.0130266
1950	0.0130266
1962	0.0131746
1974	0.0140628
1986	0.0133226
1998	0.0122864
2010	0.0125825
2022	0.0128785
2034	0.0127305
2046	0.0127305
2058	0.0137667
2070	0.0130266
2082	0.0119903
2094	0.0128785
2106	0.0118423
2118	0.0113982
2130	0.0115463
2142	0.0119903
2154	0.0118423
2166	0.0115463
2178	0.0111022
2190	0.0111022
2202	0.0111022
2214	0.0109541
2226	0.0106581
2238	0.0111022
2250	0.0109541
2262	0.0113982
2274	0.0109541
2286	0.0119903
2298	0.0118423
2310	0.0131746
2322	0.0143588
2334	0.0124344
2346	0.0111022
2358	0.0139147
2370	0.0105101
2382	0.0105101
2394	0.0109541
2406	0.0112502
2418	0.0109541
2430	0.0112502
2442	0.0108061
2454	0.0109541
2466	0.0115463
2478	0.0115463
2490	0.0112502
2502	0.0122864
2514	0.0119903
2526	0.0125825
2538	0.0124344
2550	0.0127305
2562	0.0131746
2574	0.0146549
2586	0.0142108
2598	0.0146549
2610	0.0142108
2622	0.015247
2634	0.0167273
2646	0.0182076
2658	0.0196879
2670	0.0225004
2682	0.0232406
2694	0.0230925
2706	0.0214642
2718	0.02028
2730	0.0225004
2742	0.0239807
2754	0.0241287
2766	0.0239807
2778	0.0251649
2790	0.0303459
2802	0.0381915
2814	0.0481094
2826	0.0639485
2838	0.100956
2850	0.239363
2862	0.522098
2874	0.490124
2886	0.353049
2898	0.308196
2910	0.474729
2922	0.92977
2934	1.48029
2946	0.993571
2958	0.530832
2970	0.583382
2982	0.300203
2994	0.165052
3006	0.130266
3018	0.0925181
3030	0.0632084
3042	0.051218
3054	0.0489976
3066	0.0605439
3078	0.0914819
3090	0.130117
3102	0.0495897
3114	0.0273854
3126	0.0238327
3138	0.020428
3150	0.0190957
3162	0.0187997
3174	0.0189477
3186	0.0164312
3198	0.015543
3210	0.015099
3222	0.0146549
3234	0.0137667
3246	0.0140628
3258	0.0143588
3270	0.0124344
3282	0.0128785
3294	0.0134706
3306	0.0136187
3318	0.0133226
3330	0.0134706
3342	0.0122864
3354	0.0139147
3366	0.0133226
3378	0.0149509
3390	0.0136187
3402	0.0148029
3414	0.0148029
3426	0.015543
3438	0.0131746
3450	0.0142108
3462	0.0137667
3474	0.0145068
3486	0.0127305
3498	0.0122864
3510	0.0136187
3522	0.0133226
3534	0.015247
3546	0.0127305
3558	0.0140628
3570	0.0125825
3582	0.0162832
3594	0.0133226
3606	0.0121384
3618	0.0149509
3630	0.0142108
3642	0.015099
3654	0.0143588
3666	0.0133226
3678	0.0148029
3690	0.0121384
3702	0.0133226
3714	0.0124344
3726	0.0108061
3738	0.0128785
3750	0.0145068
3762	0.0121384
3774	0.0122864
3786	0.0127305
3798	0.0143588
3810	0.0105101
3822	0.0112502
3834	0.0149509
3846	0.0115463
3858	0.015099
3870	0.0128785
3882	0.0115463
3894	0.0115463
3906	0.0133226
3918	0.0130266
3930	0.0143588
3942	0.0140628
3954	0.0185036
3966	0.0161352
