Infrared Spectrum: 2-Pyrrolidinone, 1-methyl-
Formula: C 5 H 9 N O
CAS: 872-50-4
Origin: Sadtler Research Labs Under US-EPA Contract
1/CM	ABSORBANCE
450	0
462	0.0550793
474	0.0421575
486	0.0356966
498	0.0224517
510	0.0298818
522	0.0227747
534	0.0245515
546	0.0339198
558	0.0332737
570	0.0292357
582	0.0274589
594	0.0248745
606	0.0305278
618	0.0316585
630	0.0321431
642	0.0426421
654	0.0521719
666	0.0331122
678	0.0260052
690	0.0282665
702	0.0232593
714	0.0226132
726	0.0232593
738	0.0193828
750	0.0216441
762	0.0206749
774	0.0251976
786	0.0192212
798	0.0226132
810	0.0240669
822	0.0274589
834	0.0355351
846	0.0439343
858	0.0418345
870	0.0298818
882	0.0264898
894	0.0276204
906	0.0261667
918	0.0297202
930	0.028428
942	0.0232593
954	0.0235824
966	0.035212
978	0.059602
990	0.059925
1002	0.038927
1014	0.03182
1026	0.0310124
1038	0.0253591
1050	0.0242285
1062	0.0302048
1074	0.0344044
1086	0.0461956
1098	0.0804385
1110	0.0988521
1122	0.0917451
1134	0.0539487
1146	0.0390886
1158	0.0384425
1170	0.0452264
1182	0.0411884
1194	0.0445803
1206	0.0536256
1218	0.0654168
1230	0.0689703
1242	0.0793078
1254	0.119204
1266	0.197704
1278	0.338875
1290	0.382002
1302	0.274105
1314	0.123565
1326	0.0655783
1338	0.0458725
1350	0.0335968
1362	0.0416729
1374	0.0625094
1386	0.141817
1398	0.278466
1410	0.297202
1422	0.273458
1434	0.240992
1446	0.17186
1458	0.131964
1470	0.124857
1482	0.0988521
1494	0.102406
1506	0.100467
1518	0.0709086
1530	0.0411884
1542	0.0432882
1554	0.0327892
1566	0.0332737
1578	0.0366657
1590	0.0276204
1602	0.0258437
1614	0.0293972
1626	0.0289126
1638	0.0305278
1650	0.0361812
1662	0.027782
1674	0.0518489
1686	0.0797924
1698	0.143917
1710	0.350505
1722	1.05862
1734	1.39007
1746	1.23678
1758	0.279596
1770	0.0773695
1782	0.0415114
1794	0.0344044
1806	0.0224517
1818	0.0188982
1830	0.0245515
1842	0.0198673
1854	0.0145371
1866	0.0185751
1878	0.0169599
1890	0.0190597
1902	0.0174445
1914	0.0163138
1926	0.0153447
1938	0.0148601
1950	0.013891
1962	0.0137295
1974	0.0134064
1986	0.0137295
1998	0.0143755
2010	0.0146986
2022	0.0161523
2034	0.0153447
2046	0.0146986
2058	0.014214
2070	0.0132449
2082	0.0130834
2094	0.0130834
2106	0.0129218
2118	0.0137295
2130	0.0145371
2142	0.014214
2154	0.013891
2166	0.013891
2178	0.0137295
2190	0.0137295
2202	0.0137295
2214	0.0127603
2226	0.0135679
2238	0.0146986
2250	0.0145371
2262	0.0145371
2274	0.014214
2286	0.0145371
2298	0.0167984
2310	0.0208365
2322	0.0203519
2334	0.0203519
2346	0.0276204
2358	0.020998
2370	0.024713
2382	0.0185751
2394	0.0130834
2406	0.0116297
2418	0.0114681
2430	0.0121142
2442	0.0119527
2454	0.0130834
2466	0.0145371
2478	0.0143755
2490	0.0132449
2502	0.0127603
2514	0.0125988
2526	0.0129218
2538	0.014214
2550	0.014214
2562	0.0148601
2574	0.0148601
2586	0.0143755
2598	0.013891
2610	0.0140525
2622	0.0135679
2634	0.0137295
2646	0.0145371
2658	0.0143755
2670	0.0150216
2682	0.0161523
2694	0.0161523
2706	0.0166369
2718	0.0179291
2730	0.0177675
2742	0.0188982
2754	0.0208365
2766	0.0242285
2778	0.0305278
2790	0.0403807
2802	0.0474878
2814	0.0515258
2826	0.0636401
2838	0.10289
2850	0.167338
2862	0.210303
2874	0.206265
2886	0.209657
2898	0.219994
2910	0.234208
2922	0.243577
2934	0.231462
2946	0.232916
2958	0.208688
2970	0.205296
2982	0.207072
2994	0.171699
3006	0.0972368
3018	0.0541102
3030	0.0350505
3042	0.0316585
3054	0.031497
3066	0.0293972
3078	0.0258437
3090	0.0235824
3102	0.0208365
3114	0.0195443
3126	0.0195443
3138	0.0179291
3150	0.0169599
3162	0.0171214
3174	0.0163138
3186	0.0151832
3198	0.0164753
3210	0.0163138
3222	0.0155062
3234	0.0164753
3246	0.0164753
3258	0.0151832
3270	0.0155062
3282	0.0159908
3294	0.0156677
3306	0.0171214
3318	0.0174445
3330	0.0164753
3342	0.0153447
3354	0.0166369
3366	0.0166369
3378	0.0167984
3390	0.0174445
3402	0.0163138
3414	0.0182521
3426	0.0211595
3438	0.0251976
3450	0.0292357
3462	0.0261667
3474	0.0200289
3486	0.0171214
3498	0.0174445
3510	0.0164753
3522	0.0167984
3534	0.0177675
3546	0.0158293
3558	0.0169599
3570	0.0159908
3582	0.0198673
3594	0.0145371
3606	0.0190597
3618	0.0185751
3630	0.0143755
3642	0.0187367
3654	0.0114681
3666	0.0198673
3678	0.0187367
3690	0.0130834
3702	0.0182521
3714	0.0163138
3726	0.0179291
3738	0.017283
3750	0.0116297
3762	0.0222902
3774	0.0198673
3786	0.0179291
3798	0.0171214
3810	0.0256822
3822	0.0159908
3834	0.0198673
3846	0.0193828
3858	0.0177675
3870	0.0216441
3882	0.0180906
3894	0.0227747
3906	0.0174445
3918	0.0163138
3930	0.0206749
3942	0.020998
3954	0.0195443
3966	0.0179291
