Infrared Spectrum: 2-Bromo-4-chloroaniline
Formula: C 6 H 5 Br Cl N
CAS: 873-38-1
Origin: Sadtler Research Labs Under US-EPA Contract
1/CM	ABSORBANCE
450	0.00890665
462	0.0118027
474	0.0131687
486	0.0048085
498	0.0033878
510	0.00234961
522	0.0075406
534	0.0188515
546	0.0348616
558	0.0168844
570	0.010983
582	0.0130048
594	0.00710346
606	0.00890665
618	0.0209279
630	0.041364
642	0.0847497
654	0.0784659
666	0.0609258
678	0.0608712
690	0.117699
702	0.208295
714	0.0817991
726	0.0273756
738	0.0240971
750	0.0196711
762	0.0139337
774	0.00928914
786	0.0196165
798	0.0755152
810	0.114694
822	0.0395062
834	0.0416372
846	0.0699964
858	0.0390144
870	0.0791763
882	0.0260642
894	0.00289603
906	0.0020764
918	0.00344245
930	0.00327852
942	0.00278674
954	0.00305995
966	0.00316924
978	0.00284138
990	0.00213104
1002	0.00152998
1014	0.00590134
1026	0.0298892
1038	0.0499428
1050	0.0272117
1062	0.0381401
1074	0.0504892
1086	0.0310367
1098	0.0347523
1110	0.0669911
1122	0.0697232
1134	0.0238239
1146	0.0386865
1158	0.0376483
1170	0.0122398
1182	0.010382
1194	0.0107098
1206	0.00322388
1218	0.00316924
1230	0.0101088
1242	0.0253539
1254	0.0233868
1266	0.0143162
1278	0.0554616
1290	0.119721
1302	0.108191
1314	0.0290695
1326	0.00453529
1338	0.00497242
1350	0.00732203
1362	0.00879736
1374	0.00852415
1386	0.0277581
1398	0.0574287
1410	0.0425115
1422	0.0243157
1434	0.0133873
1446	0.0193433
1458	0.0588494
1470	0.244304
1482	0.532322
1494	0.348124
1506	0.0901047
1518	0.0239332
1530	0.0216929
1542	0.0255178
1554	0.0276489
1566	0.0449157
1578	0.0413094
1590	0.0437136
1602	0.065789
1614	0.198569
1626	0.268238
1638	0.102071
1650	0.0342059
1662	0.0146987
1674	0.011147
1686	0.00939842
1698	0.00907057
1710	0.00852415
1722	0.0139884
1734	0.0185783
1746	0.0101634
1758	0.00431672
1770	0.00420743
1782	0.00289603
1794	0.0037703
1806	0.00316924
1818	0.00213104
1830	0.00284138
1842	0.0037703
1854	0.00934378
1866	0.00852415
1878	0.0020764
1890	0.00180319
1902	0.00147533
1914	0.00131141
1926	0.00125677
1938	0.00136605
1950	0.00158462
1962	0.00142069
1974	0.00185783
1986	0.00191247
1998	0.00114748
2010	0.000491778
2022	0.000655704
2034	0.000655704
2046	0.000710346
2058	0.000327852
2070	0.00027321
2082	5.4642e-05
2094	0.00027321
2106	0.000382494
2118	0.000163926
2130	0.000710346
2142	0.00125677
2154	0.000710346
2166	0.000327852
2178	0.00027321
2190	0.000601062
2202	0.000109284
2214	0.000163926
2226	0.000491778
2238	0.000601062
2250	0.000327852
2262	0.000437136
2274	0.000710346
2286	0.00131141
2298	0.00267746
2310	0.00360637
2322	0.00540956
2334	0.00497242
2346	0.00218568
2358	0.0037703
2370	5.4642e-05
2382	5.4642e-05
2394	0.000382494
2406	0.0010382
2418	0.00125677
2430	0.00136605
2442	0.000655704
2454	0.000655704
2466	0.000764988
2478	0.000874272
2490	0.000764988
2502	0.000437136
2514	0.00081963
2526	0.00142069
2538	0.00202175
2550	0.00163926
2562	0.000928914
2574	0.00174854
2586	0.00327852
2598	0.00256817
2610	0.00131141
2622	0.00136605
2634	0.00202175
2646	0.00163926
2658	0.00142069
2670	0.00120212
2682	0.00147533
2694	0.00185783
2706	0.00147533
2718	0.00125677
2730	0.000710346
2742	0.000983556
2754	0.00131141
2766	0.00142069
2778	0.00152998
2790	0.00120212
2802	0.00120212
2814	0.00163926
2826	0.00152998
2838	0.00224032
2850	0.00295067
2862	0.00344245
2874	0.0027321
2886	0.00136605
2898	0.00131141
2910	0.00152998
2922	0.00147533
2934	0.00180319
2946	0.00240425
2958	0.00185783
2970	0.00213104
2982	0.00218568
2994	0.00267746
3006	0.00360637
3018	0.00901593
3030	0.0187968
3042	0.015409
3054	0.0130048
3066	0.0181411
3078	0.0136605
3090	0.00912521
3102	0.00420743
3114	0.00213104
3126	0.00191247
3138	0.00240425
3150	0.00224032
3162	0.00251353
3174	0.00327852
3186	0.00453529
3198	0.00524563
3210	0.00469921
3222	0.00284138
3234	0.00224032
3246	0.00174854
3258	0.00131141
3270	0.00136605
3282	0.00125677
3294	0.00147533
3306	0.00120212
3318	0.000983556
3330	0.000874272
3342	0.00114748
3354	0.00158462
3366	0.00322388
3378	0.00524563
3390	0.016338
3402	0.0575927
3414	0.0643683
3426	0.0365009
3438	0.00825094
3450	0.00453529
3462	0.00639311
3474	0.0124037
3486	0.0304356
3498	0.0511449
3510	0.0438775
3522	0.0343698
3534	0.0138244
3546	0.00486314
3558	0.0020764
3570	0.00158462
3582	0.00136605
3594	0.00152998
3606	0.000655704
3618	0.000874272
3630	0.00202175
3642	0.000983556
3654	0.000655704
3666	0.00152998
3678	0.00158462
3690	0.00081963
3702	0.0010382
3714	0.000491778
3726	0.00174854
3738	0.00131141
3750	0.000764988
3762	0.00131141
3774	0.00081963
3786	0.000928914
3798	0.000601062
3810	0.00120212
3822	0.00131141
3834	0.00240425
3846	0.00366101
3858	0.00382494
3870	0.00234961
3882	0.00191247
3894	0.00136605
3906	0.0016939
3918	0.00202175
3930	0.00305995
3942	0.0033878
3954	0.00284138
3966	0.00218568
