Infrared Spectrum: 4-Chlorobenzyl alcohol
Formula: C 7 H 7 Cl O
CAS: 873-76-7
Origin: Sadtler Research Labs Under US-EPA Contract
1/CM	ABSORBANCE
450	0.0334822
462	0.0428208
474	0.0389031
486	0.0398142
498	0.0424563
510	0.0588558
522	0.0689688
534	0.0489705
546	0.0281524
558	0.0135295
570	0.00619534
582	0.00364432
594	0.00182216
606	0.00141217
618	0.0034621
630	0.00769863
642	0.0235059
654	0.0314778
666	0.0112518
678	0.00373543
690	0.0010933
702	0.00173105
714	0.00327989
726	0.00405431
738	0.00637756
750	0.0100219
762	0.0163083
774	0.0363521
786	0.108555
798	0.213193
810	0.252369
822	0.225811
834	0.158391
846	0.077624
858	0.0318878
870	0.0165361
882	0.0121174
894	0.0126185
906	0.0148962
918	0.0193149
930	0.0271957
942	0.0373998
954	0.0464651
966	0.0675566
978	0.0896047
990	0.12705
1002	0.219935
1014	0.45554
1026	0.341063
1038	0.298606
1050	0.220117
1062	0.163812
1074	0.146638
1086	0.291136
1098	0.41117
1110	0.129009
1122	0.0494716
1134	0.0372176
1146	0.0399964
1158	0.0505194
1170	0.0638667
1182	0.0761663
1194	0.0882837
1206	0.0913813
1218	0.0612701
1230	0.0511571
1242	0.0440963
1254	0.040953
1266	0.0422286
1278	0.0403153
1290	0.0391309
1302	0.0395864
1314	0.0418186
1326	0.0455996
1338	0.0496083
1350	0.0587191
1362	0.0940235
1374	0.143586
1386	0.148734
1398	0.133337
1410	0.113338
1422	0.0759385
1434	0.0432763
1446	0.0327078
1458	0.0468751
1470	0.0765307
1482	0.147413
1494	0.361881
1506	0.133564
1518	0.0182672
1530	0.0113885
1542	0.0111152
1554	0.00920191
1566	0.0106141
1578	0.0199527
1590	0.0570336
1602	0.0842749
1614	0.0311589
1626	0.0178572
1638	0.016445
1650	0.0148051
1662	0.00756196
1674	0.00491983
1686	0.0034621
1698	0.00423652
1710	0.00245992
1722	0.00897414
1734	0.010113
1746	0.00751641
1758	0.00710642
1770	0.0127551
1782	0.0120718
1794	0.00391764
1806	0.00104774
1818	0.000592202
1830	0.00150328
1842	0.000956634
1854	0.00104774
1866	0.00482872
1878	0.0112974
1890	0.0189049
1902	0.0162628
1914	0.00760752
1926	0.003371
1938	0.00218659
1950	0.00159439
1962	0.00200438
1974	0.00177661
1986	0.00195882
1998	0.0022777
2010	0.00291546
2022	0.0039632
2034	0.00373543
2046	0.003371
2058	0.00300656
2070	0.0028699
2082	0.00232325
2094	0.00195882
2106	0.00113885
2118	0.00068331
2130	0.000501094
2142	0.000592202
2154	0.000501094
2166	0.00022777
2178	0
2190	9.1108e-05
2202	0.000273324
2214	0.000819972
2226	0.000774418
2238	0.00132107
2250	0.00145773
2262	0.00209548
2274	0.00368987
2286	0.00505649
2298	0.00510205
2310	0.00478317
2322	0.00341655
2334	0.00250547
2346	0.00309767
2358	0.0034621
2370	0.00305212
2382	0.00318878
2394	0.00268769
2406	0.00296101
2418	0.00232325
2430	0.00150328
2442	0.00141217
2454	0.00150328
2466	0.00163994
2478	0.00177661
2490	0.00186771
2502	0.00191327
2514	0.00204993
2526	0.00195882
2538	0.00223215
2550	0.00245992
2562	0.00277879
2574	0.00309767
2586	0.00323433
2598	0.00296101
2610	0.00255102
2622	0.00236881
2634	0.00209548
2646	0.0022777
2658	0.00236881
2670	0.00364432
2682	0.00437318
2694	0.00469206
2706	0.00450985
2718	0.0051476
2730	0.00605868
2742	0.00646867
2754	0.00769863
2766	0.00929302
2778	0.0112974
2790	0.013484
2802	0.0150328
2814	0.0169005
2826	0.0214104
2838	0.0301567
2850	0.0462829
2862	0.0700165
2874	0.108692
2886	0.13976
2898	0.117939
2910	0.100401
2922	0.0986244
2934	0.0988066
2946	0.091518
2958	0.0777607
2970	0.056077
2982	0.039222
2994	0.028289
3006	0.023187
3018	0.028289
3030	0.0528882
3042	0.0596302
3054	0.0420463
3066	0.0300656
3078	0.0300656
3090	0.0386753
3102	0.0360332
3114	0.0163083
3126	0.00409986
3138	0.00182216
3150	0.00150328
3162	0.00141217
3174	0.00104774
3186	0.000637756
3198	0.00045554
3210	0.000501094
3222	0.000774418
3234	0.00045554
3246	0.00091108
3258	0.000501094
3270	0.000592202
3282	0.000273324
3294	0.000546648
3306	0.000819972
3318	0.000592202
3330	0.000728864
3342	0.00127551
3354	0.0010933
3366	0.00141217
3378	0.00136662
3390	0.00223215
3402	0.00264213
3414	0.00318878
3426	0.00341655
3438	0.00305212
3450	0.00364432
3462	0.00359877
3474	0.00405431
3486	0.00327989
3498	0.00400875
3510	0.00300656
3522	0.00259658
3534	0.00305212
3546	0.00350766
3558	0.0022777
3570	0.00441874
3582	0.00414541
3594	0.00587647
3606	0.00778973
3618	0.0132562
3630	0.0288812
3642	0.0496994
3654	0.0783529
3666	0.084776
3678	0.0567147
3690	0.0310678
3702	0.017265
3714	0.0108419
3726	0.00842749
3738	0.00665088
3750	0.00432763
3762	0.0034621
3774	0.00368987
3786	0.00327989
3798	0.003371
3810	0.00296101
3822	0.00441874
3834	0.00373543
3846	0.00432763
3858	0.00687865
3870	0.00655978
3882	0.00651422
3894	0.0062409
3906	0.00482872
3918	0.00523871
3930	0.00428208
3942	0.00264213
3954	0.00236881
3966	0.0022777
