Infrared Spectrum: Benzenemethanol, 4-bromo-
Formula: C 7 H 7 Br O
CAS: 873-75-6
Origin: Sadtler Research Labs Under US-EPA Contract
1/CM	ABSORBANCE
450	0.0456042
462	0.0307425
474	0.0127386
486	0.0310822
498	0.0344791
510	0.0336299
522	0.0265812
534	0.0143522
546	0.0033545
558	0.0110401
570	0.00794039
582	0.0138851
594	0.00411881
606	0.000552006
618	0.0166026
630	0.0171971
642	0.015626
654	0.00594468
666	0.00870471
678	0.00577483
690	0.0130358
702	0.00968134
714	0.00798286
726	0.00887456
738	0.00997857
750	0.0130783
762	0.0208913
774	0.0508695
786	0.117705
798	0.17265
810	0.168617
822	0.156727
834	0.113968
846	0.0487464
858	0.0218255
870	0.0162205
882	0.0216556
894	0.0173245
906	0.0166876
918	0.0211036
930	0.0247129
942	0.0289591
954	0.039702
966	0.0479821
978	0.0623342
990	0.0850089
1002	0.185516
1014	0.42462
1026	0.16781
1038	0.189211
1050	0.133755
1062	0.141441
1074	0.297319
1086	0.134053
1098	0.082716
1110	0.0580031
1122	0.0420374
1134	0.0305726
1146	0.0281523
1158	0.0308274
1170	0.0456467
1182	0.0513366
1194	0.0651792
1206	0.0596166
1218	0.0353284
1230	0.0299782
1242	0.0301056
1254	0.031252
1266	0.032356
1278	0.0289166
1290	0.0318465
1302	0.0339696
1314	0.0308274
1326	0.0352435
1338	0.040806
1350	0.0536295
1362	0.0796587
1374	0.102716
1386	0.105178
1398	0.0914207
1410	0.0779178
1422	0.0545637
1434	0.0364749
1446	0.0291289
1458	0.0386404
1470	0.0652641
1482	0.145602
1494	0.217448
1506	0.0379186
1518	0.0152014
1530	0.00963887
1542	0.0063693
1554	0.00535021
1566	0.0138851
1578	0.0304877
1590	0.0706143
1602	0.0543514
1614	0.0166026
1626	0.0146494
1638	0.00993611
1650	0.00946903
1662	0.00598714
1674	0.00373666
1686	0.00679392
1698	0.00641176
1710	0.0104457
1722	0.0431414
1734	0.020679
1746	0.00348188
1758	0.00322711
1770	0.00840748
1782	0.0115072
1794	0.00479821
1806	0.00280249
1818	0.00280249
1830	0.00382158
1842	0.00254772
1854	0.00199571
1866	0.00573237
1878	0.00861979
1890	0.0143946
1902	0.012314
1914	0.00687884
1926	0.00365173
1938	0.00259018
1950	0.00237787
1962	0.0017834
1974	0.00267511
1986	0.00225049
1998	0.00305726
2010	0.00288742
2022	0.00352435
2034	0.00343942
2046	0.00309973
2058	0.00288742
2070	0.0030148
2082	0.00242033
2094	0.00284495
2106	0.00165602
2118	0.00157109
2130	0.00140125
2142	0.0012314
2154	0.000976626
2166	0.000764316
2178	0.000594468
2190	0.00101909
2202	0.00118894
2214	0.00101909
2226	0.00140125
2238	0.000467082
2250	0.0012314
2262	0.00199571
2274	0.00242033
2286	0.00373666
2298	0.00403389
2310	0.00318465
2322	0.00305726
2334	0.0045859
2346	0.00220802
2358	0.00543514
2370	0.00475574
2382	0.00271757
2394	0.00263264
2406	0.00229295
2418	0.0021231
2430	0.00118894
2442	0.000721854
2454	0.000891702
2466	0.00118894
2478	0.00144371
2490	0.00131632
2502	0.000934164
2514	0.00114647
2526	0.00191079
2538	0.00144371
2550	0.00199571
2562	0.00186833
2574	0.00195325
2586	0.00259018
2598	0.00276003
2610	0.00229295
2622	0.00101909
2634	0.0012314
2646	0.00140125
2658	0.00157109
2670	0.00305726
2682	0.00314219
2694	0.00411881
2706	0.00496805
2718	0.00713362
2730	0.00840748
2742	0.00649669
2754	0.00619945
2766	0.00738839
2778	0.00946903
2790	0.0115072
2802	0.0131632
2814	0.0163903
2826	0.0201695
2838	0.0229719
2850	0.0349038
2862	0.0560923
2874	0.0755824
2886	0.089977
2898	0.0728648
2910	0.0640752
2922	0.0621644
2934	0.0608056
2946	0.060296
2958	0.0514215
2970	0.0364749
2982	0.0253498
2994	0.0183436
3006	0.0155411
3018	0.0202544
3030	0.0378336
3042	0.0355407
3054	0.0264963
3066	0.0208488
3078	0.0211036
3090	0.0280249
3102	0.0205091
3114	0.00704869
3126	0.0021231
3138	0.00182587
3150	0.00106155
3162	0.00140125
3174	0.00191079
3186	0.00225049
3198	0.00203818
3210	0.00220802
3222	0.00225049
3234	0.0012314
3246	0.0012314
3258	0.00114647
3270	0.00127386
3282	0.00174094
3294	0.0017834
3306	0.00110401
3318	0.00216556
3330	0.00250526
3342	0.00127386
3354	0.00144371
3366	0.00216556
3378	0.00186833
3390	0.00203818
3402	0.00305726
3414	0.00229295
3426	0.00343942
3438	0.00259018
3450	0.00144371
3462	0.00403389
3474	0.00169848
3486	0.000976626
3498	0.00271757
3510	0.00360927
3522	0.00220802
3534	0.000764316
3546	0.00263264
3558	0.00174094
3570	0.00505298
3582	0.00343942
3594	0.00475574
3606	0.00653915
3618	0.00951149
3630	0.0154562
3642	0.0287892
3654	0.0445002
3666	0.0491285
3678	0.0332053
3690	0.017834
3702	0.0122291
3714	0.0063693
3726	0.00594468
3738	0.00288742
3750	0.00101909
3762	0.00127386
3774	0.00063693
3786	0.00114647
3798	0.000169848
3810	0.000891702
3822	0.000169848
3834	0.000764316
3846	0.00250526
3858	0.00186833
3870	0.00619945
3882	0.00186833
3894	0.00326957
3906	0.00450097
3918	0.0054776
3930	0.0039065
3942	0.00590222
3954	0.00386404
3966	0
