Infrared Spectrum: Benzene, cyclopropyl-
Formula: C 9 H 10
CAS: 873-49-4
Origin: Sadtler Research Labs Under US-EPA Contract
1/CM	ABSORBANCE
450	0.0175553
462	0.011815
474	0.00863831
486	0.0146015
498	0.0144343
510	0.0356121
522	0.0655397
534	0.0759614
546	0.0560097
558	0.0318781
570	0.0158833
582	0.00607468
594	0.00228497
606	0.00328813
618	0.00295374
630	0.00156047
642	0.00412409
654	0.0123723
666	0.0298161
678	0.15783
690	0.345031
702	0.353446
714	0.188371
726	0.109734
738	0.222924
750	0.428794
762	0.22716
774	0.0617499
786	0.0339402
798	0.059465
810	0.0892253
822	0.0711685
834	0.0410737
846	0.0284785
858	0.0287572
870	0.0430801
882	0.0800854
894	0.175163
906	0.183132
918	0.0664314
930	0.030875
942	0.0195058
954	0.0155489
966	0.0130411
978	0.0112577
990	0.0214564
1002	0.0430243
1014	0.104551
1026	0.232287
1038	0.163236
1050	0.09987
1062	0.0796953
1074	0.0769088
1086	0.0632547
1098	0.0358908
1110	0.0206205
1122	0.00813673
1134	0.00351105
1146	0.00496006
1158	0.00936281
1170	0.0177225
1182	0.0165521
1194	0.00819246
1206	0.0138213
1218	0.0614713
1230	0.0659298
1242	0.0262493
1254	0.00986439
1266	0.00936281
1278	0.010979
1290	0.0106446
1302	0.0120379
1314	0.0111462
1326	0.0103102
1338	0.0101988
1350	0.0127067
1362	0.0251904
1374	0.0341074
1386	0.0188928
1398	0.0110347
1410	0.0137656
1422	0.0264165
1434	0.0488761
1446	0.072729
1458	0.0947427
1470	0.0947427
1482	0.0825933
1494	0.205146
1506	0.21841
1518	0.0595207
1530	0.0200074
1542	0.0148802
1554	0.0108675
1566	0.0146015
1578	0.0258035
1590	0.0576259
1602	0.205815
1614	0.187925
1626	0.0310979
1638	0.0159948
1650	0.0129853
1662	0.0113691
1674	0.00769088
1686	0.00657626
1698	0.00746795
1710	0.00841538
1722	0.0109233
1734	0.013877
1746	0.0171094
1758	0.0149916
1770	0.0129853
1782	0.0245774
1794	0.0371168
1806	0.0254133
1818	0.0158276
1830	0.0144901
1842	0.0142114
1854	0.0149359
1866	0.0179454
1878	0.0230169
1890	0.0224039
1902	0.020509
1914	0.0287572
1926	0.0336615
1938	0.0333829
1950	0.0356678
1962	0.0190043
1974	0.00473713
1986	0.00356678
1998	0.00289801
2010	0.00261936
2022	0.00300947
2034	0.0046814
2046	0.00757942
2058	0.0108675
2070	0.0122051
2082	0.0106446
2094	0.0100873
2106	0.00624187
2118	0.00367825
2130	0.00345532
2142	0.00456994
2154	0.00339959
2166	0.00200632
2178	0.0025079
2190	0.00300947
2202	0.00334386
2214	0.00351105
2226	0.00434702
2238	0.00551737
2250	0.0055731
2262	0.00451421
2274	0.00417982
2286	0.00295374
2298	0.00239643
2310	0.00490433
2322	0.00668772
2334	0.00713357
2346	0.00702211
2358	0.00490433
2370	0.00440275
2382	0.00334386
2394	0.00429129
2406	0.00445848
2418	0.00167193
2430	0.00144901
2442	0.00200632
2454	0.00306521
2466	0.00518298
2478	0.00780234
2490	0.00702211
2502	0.00423556
2514	0.00317667
2526	0.0025079
2538	0.00289801
2550	0.00339959
2562	0.00239643
2574	0.00206205
2586	0.00356678
2598	0.00490433
2610	0.00429129
2622	0.00300947
2634	0.00356678
2646	0.00222924
2658	0.00150474
2670	0.00122608
2682	0.00105889
2694	0.000947427
2706	0.000278655
2718	0
2730	5.5731e-05
2742	0.00055731
2754	0.000891696
2766	0.00133754
2778	0.00189485
2790	0.00117035
2802	0.00150474
2814	0.00178339
2826	0.00328813
2838	0.00423556
2850	0.00735649
2862	0.0138213
2874	0.0195616
2886	0.0207319
2898	0.0218466
2910	0.0217351
2922	0.020509
2934	0.0214564
2946	0.0202304
2958	0.0207319
2970	0.0284228
2982	0.0507709
2994	0.101096
3006	0.210106
3018	0.386216
3030	0.545384
3042	0.528999
3054	0.321401
3066	0.374568
3078	0.449471
3090	0.502415
3102	0.339235
3114	0.109456
3126	0.0454208
3138	0.0129853
3150	0.00724503
3162	0.00657626
3174	0.00507152
3186	0.00189485
3198	0.00144901
3210	0.00211778
3222	0.00217351
3234	0.00222924
3246	0.00200632
3258	0.00117035
3270	0.00128181
3282	0.00144901
3294	0.000724503
3306	0.00133754
3318	0.000334386
3330	0.000780234
3342	5.5731e-05
3354	0.000167193
3366	0.000613041
3378	0.00105889
3390	0.00133754
3402	0.00133754
3414	0.000947427
3426	0.00100316
3438	0.00122608
3450	0.00144901
3462	0.00100316
3474	0.00111462
3486	0.00133754
3498	0.00100316
3510	0.000613041
3522	0.000724503
3534	0.00117035
3546	0.0016162
3558	0.00139328
3570	5.5731e-05
3582	0.00105889
3594	0.00100316
3606	0.00183912
3618	0.0025079
3630	0.00178339
3642	0.00245216
3654	0.00367825
3666	0.00256363
3678	0.000947427
3690	0.000947427
3702	0.0016162
3714	0.00200632
3726	0.00105889
3738	0.00128181
3750	0.00100316
3762	0.00111462
3774	0.00128181
3786	0.00189485
3798	0.0023407
3810	0.00390117
3822	0.00445848
3834	0.00406836
3846	0.000668772
3858	0.00200632
3870	0.00211778
3882	0.00239643
3894	0.00328813
3906	0.00273082
3918	0.00267509
3930	0.00284228
3942	0.00195058
3954	0.00156047
3966	0.000891696
