Infrared Spectrum: Benzonitrile, 3-hydroxy-
Formula: C 7 H 5 N O
CAS: 873-62-1
Origin: Sadtler Research Labs Under US-EPA Contract
1/CM	ABSORBANCE
450	0.105525
462	0.114315
474	0.0811044
486	0.0479995
498	0.0323681
510	0.0372627
522	0.0603151
534	0.0534731
546	0.0239471
558	0.0439469
570	0.0321049
582	0.0268418
594	0.033947
606	0.0332102
618	0.0241576
630	0.0200524
642	0.018263
654	0.031526
666	0.093999
678	0.212787
690	0.10763
702	0.0475258
714	0.0473153
726	0.0357891
738	0.0282628
750	0.0335786
762	0.0815254
774	0.176209
786	0.253208
798	0.154051
810	0.0722097
822	0.0485258
834	0.0471574
846	0.0741044
858	0.116209
870	0.103946
882	0.0978937
894	0.070315
906	0.0584204
918	0.102315
930	0.211629
942	0.156998
954	0.0301576
966	0.0225261
978	0.0276839
990	0.0461048
1002	0.0721045
1014	0.0659466
1026	0.0476311
1038	0.0437364
1050	0.049631
1062	0.0542099
1074	0.0735255
1086	0.0909464
1098	0.0963674
1110	0.0979463
1122	0.128683
1134	0.242682
1146	0.388627
1158	0.423837
1170	0.37247
1182	0.429364
1194	0.506573
1206	0.33647
1218	0.162946
1230	0.12842
1242	0.132472
1254	0.161577
1266	0.296049
1278	0.4941
1290	0.490153
1302	0.286049
1314	0.179156
1326	0.0837359
1338	0.056052
1350	0.04821
1362	0.0480521
1374	0.0401048
1386	0.0344207
1398	0.0352628
1410	0.0416838
1422	0.102052
1434	0.178788
1446	0.219945
1458	0.182261
1470	0.155156
1482	0.188051
1494	0.158525
1506	0.0982621
1518	0.0414732
1530	0.0254734
1542	0.0392627
1554	0.0533152
1566	0.106894
1578	0.276786
1590	0.433785
1602	0.443837
1614	0.232524
1626	0.0847885
1638	0.0233155
1650	0.0205261
1662	0.0257892
1674	0.0571046
1686	0.0928937
1698	0.114683
1710	0.111736
1722	0.103736
1734	0.108525
1746	0.129472
1758	0.132367
1770	0.11163
1782	0.0850517
1794	0.0558941
1806	0.0348417
1818	0.0218419
1830	0.0173682
1842	0.0165261
1854	0.0169998
1866	0.0171051
1878	0.011842
1890	0.00836833
1902	0.0083157
1914	0.0101578
1926	0.0154735
1938	0.0140525
1950	0.00978937
1962	0.00573678
1974	0.00468416
1986	0.00478942
1998	0.00447364
2010	0.00473679
2022	0.00426311
2034	0.00331575
2046	0.00405259
2058	0.00421048
2070	0.00478942
2082	0.00578941
2094	0.00478942
2106	0.00357891
2118	0.00363154
2130	0.00231576
2142	0.000368417
2154	0.00131577
2166	0.00142104
2178	0.00205261
2190	0.00347365
2202	0.0089999
2214	0.0180524
2226	0.0363154
2238	0.0471574
2250	0.025105
2262	0.00436837
2274	0.00494731
2286	0.00673677
2298	0.00978937
2310	0.011842
2322	0.0111051
2334	0.00663151
2346	0.0136841
2358	0.0101578
2370	0.0135262
2382	0.0144735
2394	0.00652624
2406	0.00536836
2418	0.00547362
2430	0.00573678
2442	0.00710518
2454	0.00752623
2466	0.00989463
2478	0.00889464
2490	0.00647361
2502	0.00647361
2514	0.00689466
2526	0.00557889
2538	0.00689466
2550	0.00763149
2562	0.0059473
2574	0.00647361
2586	0.00626309
2598	0.00589467
2610	0.00642098
2622	0.00510521
2634	0.00352628
2646	0.00231576
2658	0.00321049
2670	0.00147367
2682	0.00110525
2694	0.00299997
2706	0.00315786
2718	0.0022105
2730	0.00431574
2742	0.00357891
2754	0.00321049
2766	0.00363154
2778	0.00268418
2790	0.00257892
2802	0.00347365
2814	0.00347365
2826	0.00410522
2838	0.00673677
2850	0.013263
2862	0.0161051
2874	0.0146314
2886	0.0153683
2898	0.0208419
2910	0.0277365
2922	0.0344207
2934	0.038368
2946	0.0317891
2958	0.0321049
2970	0.0264734
2982	0.0165261
2994	0.0125262
3006	0.0137893
3018	0.0214734
3030	0.0301576
3042	0.0338417
3054	0.0430522
3066	0.0431048
3078	0.0399996
3090	0.0376312
3102	0.0284207
3114	0.0183156
3126	0.0119472
3138	0.00710518
3150	0.00584204
3162	0.00536836
3174	0.00515784
3186	0.00531573
3198	0.00415785
3210	0.00473679
3222	0.00494731
3234	0.00468416
3246	0.00426311
3258	0.00484205
3270	0.00536836
3282	0.004421
3294	0.00294734
3306	0.00147367
3318	0.00215787
3330	0.00399996
3342	0.00705255
3354	0.0059473
3366	0.00689466
3378	0.00578941
3390	0.0045789
3402	0.004421
3414	0.00378943
3426	0.00489468
3438	0.00431574
3450	0.00352628
3462	0.00368417
3474	0.00289471
3486	0.00189472
3498	0.00584204
3510	0.00478942
3522	0.0061052
3534	0.00505258
3546	0.00578941
3558	0.00473679
3570	0.0132104
3582	0.0126314
3594	0.0126841
3606	0.0115262
3618	0.0214734
3630	0.0691571
3642	0.289628
3654	0.390206
3666	0.179893
3678	0.0236839
3690	0.0114736
3702	0.0113683
3714	0.00836833
3726	0.00936832
3738	0.0101578
3750	0.0121051
3762	0.00673677
3774	0.00910516
3786	0.00878938
3798	0.0111578
3810	0.0155788
3822	0.0279471
3834	0.0173682
3846	0.00463153
3858	0.00889464
3870	0.00705255
3882	0.00784202
3894	0.00410522
3906	0.0083157
3918	0.00542099
3930	0.00978937
3942	0.00599993
3954	0.00384206
3966	0.00778939
