Infrared Spectrum: Cyclohexanone, 2-acetyl-
Formula: C 8 H 12 O 2
CAS: 874-23-7
Origin: Sadtler Research Labs Under US-EPA Contract
1/CM	ABSORBANCE
450	0.0104647
462	0.00422057
474	0.00161885
486	0.0105225
498	0.0131242
510	0.0103491
522	0.00445183
534	0.00427838
546	0.00763171
558	0.0190793
570	0.0173448
582	0.00647539
594	0.00381586
606	0.00502999
618	0.0139915
630	0.0185011
642	0.0125461
654	0.007227
666	0.00861458
678	0.0116788
690	0.0046831
702	0.000809424
714	0.000693792
726	0.000925056
738	0.000404712
750	0.000462528
762	0.00173448
774	0.00248609
786	0.000925056
798	0.00115632
810	0.00508781
822	0.0237046
834	0.0256125
846	0.023242
858	0.0283877
870	0.0278673
882	0.0337645
894	0.0307581
906	0.0442292
918	0.0643492
930	0.085163
942	0.110891
954	0.127311
966	0.0730216
978	0.0507624
990	0.0398352
1002	0.0208138
1014	0.0198887
1026	0.0272313
1038	0.0244562
1050	0.0154369
1062	0.0148587
1074	0.0231264
1086	0.0243405
1098	0.0220857
1110	0.032666
1122	0.0527282
1134	0.0610537
1146	0.0600708
1158	0.0759124
1170	0.10985
1182	0.08233
1194	0.0488545
1206	0.0641179
1218	0.101814
1230	0.1779
1242	0.259536
1254	0.267226
1266	0.21548
1278	0.162694
1290	0.153733
1302	0.201662
1314	0.245718
1326	0.182005
1338	0.153328
1350	0.161191
1362	0.196748
1374	0.185127
1386	0.147142
1398	0.168765
1410	0.226812
1422	0.267862
1434	0.212705
1446	0.153848
1458	0.149397
1470	0.111758
1482	0.0870709
1494	0.0844692
1506	0.0900195
1518	0.0976512
1530	0.112336
1542	0.136561
1554	0.171771
1566	0.230281
1578	0.321515
1590	0.437031
1602	0.527108
1614	0.526646
1626	0.497333
1638	0.457614
1650	0.338339
1662	0.210855
1674	0.134885
1686	0.100889
1698	0.095223
1710	0.150958
1722	0.218544
1734	0.179923
1746	0.100426
1758	0.056544
1770	0.0538845
1782	0.0459637
1794	0.0342849
1806	0.0275782
1818	0.0156681
1830	0.0086724
1842	0.00624413
1854	0.00485654
1866	0.00364241
1878	0.00277517
1890	0.00196574
1902	0.00127195
1914	0.000925056
1926	0.00127195
1938	0.00190793
1950	0.00190793
1962	0.00173448
1974	0.0017923
1986	0.0014454
1998	0.000751608
2010	0.000404712
2022	0.000520344
2034	0.000693792
2046	0.000751608
2058	0.000751608
2070	0.000982872
2082	0.00121414
2094	0.0014454
2106	0.00121414
2118	0.000693792
2130	0.000404712
2142	0.000231264
2154	0.000115632
2166	0
2178	5.7816e-05
2190	0
2202	5.7816e-05
2214	0.000346896
2226	0.0010985
2238	0.00190793
2250	0.00265954
2262	0.00260172
2274	0.0028908
2286	0.00306425
2298	0.00375804
2310	0.00427838
2322	0.00456746
2334	0.00427838
2346	0.0043362
2358	0.00335333
2370	0.00508781
2382	0.00526126
2394	0.00422057
2406	0.00439402
2418	0.00456746
2430	0.00456746
2442	0.00502999
2454	0.00531907
2466	0.00647539
2478	0.00809424
2490	0.00925056
2502	0.0097709
2514	0.00994435
2526	0.0101756
2538	0.00953964
2550	0.0090193
2562	0.0090193
2574	0.0101756
2586	0.0114476
2598	0.0131242
2610	0.0142806
2622	0.0153791
2634	0.0159572
2646	0.017287
2658	0.0191949
2670	0.0208716
2682	0.0202934
2694	0.018848
2706	0.0182699
2718	0.0183855
2730	0.0181542
2742	0.0187324
2754	0.0194262
2766	0.0205825
2778	0.0212763
2790	0.0220279
2802	0.0236467
2814	0.0253812
2826	0.0306425
2838	0.0476404
2850	0.101005
2862	0.150437
2874	0.169285
2886	0.124478
2898	0.101583
2910	0.119217
2922	0.152345
2934	0.300759
2946	0.515314
2958	0.434198
2970	0.121934
2982	0.056255
2994	0.0351521
3006	0.0342849
3018	0.0381007
3030	0.0319144
3042	0.0253234
3054	0.0213341
3066	0.0187902
3078	0.0169401
3090	0.0151478
3102	0.013818
3114	0.0119101
3126	0.0101756
3138	0.00948182
3150	0.00855677
3162	0.00774734
3174	0.00740045
3186	0.00705355
3198	0.00740045
3210	0.00716918
3222	0.007227
3234	0.00664884
3246	0.00647539
3258	0.00601286
3270	0.00456746
3282	0.00393149
3294	0.00370022
3306	0.00248609
3318	0.00213919
3330	0.00156103
3342	0.00231264
3354	0.00242827
3366	0.0017923
3378	0.00190793
3390	0.00231264
3402	0.00202356
3414	0.0025439
3426	0.00271735
3438	0.00422057
3450	0.00352678
3462	0.00439402
3474	0.00462528
3486	0.00537689
3498	0.00312206
3510	0.00260172
3522	0.00185011
3534	0.00150322
3546	0.00208138
3558	0.00317988
3570	0.0057816
3582	0.00734263
3594	0.00335333
3606	0.00231264
3618	0.00132977
3630	0.00208138
3642	0.00057816
3654	0.000520344
3666	0.0010985
3678	0.00161885
3690	0.00121414
3702	0.00150322
3714	0.00138758
3726	0.00167666
3738	0.00167666
3750	0.0017923
3762	0.00190793
3774	0.00225482
3786	0.00225482
3798	0.00237046
3810	0.00237046
3822	0.00300643
3834	0.00185011
3846	0.00202356
3858	0.00185011
3870	0.00196574
3882	0.0017923
3894	0.00156103
3906	0.00317988
3918	0.00283298
3930	0.00231264
3942	0.00156103
3954	0.00242827
3966	0.00231264
