Infrared Spectrum: 4-Hydroxy-2-methylacetophenone
Formula: C 9 H 10 O 2
CAS: 875-59-2
Origin: Sadtler Research Labs Under US-EPA Contract
1/CM	ABSORBANCE
450	0.0117839
462	0.000198048
474	0.0152992
486	0.00861509
498	0.0142595
510	0.00311926
522	0.0179233
534	0.0358467
546	0.0505518
558	0.0397581
570	0.0262909
582	0.0411445
594	0.051641
606	0.0531759
618	0.0233697
630	0.0234192
642	0.018765
654	0.0100014
666	0.01218
678	0.014408
690	0.0182699
702	0.01015
714	0.0137643
726	0.0166855
738	0.0155963
750	0.0114868
762	0.0205475
774	0.0236172
786	0.0469869
798	0.0891711
810	0.0789716
822	0.0484722
834	0.0373816
846	0.0575825
858	0.0469374
870	0.0458976
882	0.0261423
894	0.0230231
906	0.014606
918	0.0257958
930	0.0339652
942	0.0311926
954	0.0525322
966	0.113828
978	0.0869431
990	0.0442637
1002	0.0612959
1014	0.0777338
1026	0.0600085
1038	0.047581
1050	0.047383
1062	0.0406989
1074	0.045452
1086	0.0477296
1098	0.0453035
1110	0.0676829
1122	0.172549
1134	0.149675
1146	0.112343
1158	0.230429
1170	0.233944
1182	0.256324
1194	0.40887
1206	0.311331
1218	0.124721
1230	0.167994
1242	0.412534
1254	0.438478
1266	0.167549
1278	0.0959047
1290	0.173441
1302	0.190968
1314	0.0655044
1326	0.0344604
1338	0.0379757
1350	0.0962018
1362	0.137
1374	0.0753078
1386	0.0511954
1398	0.0362923
1410	0.0448579
1422	0.0718914
1434	0.0880323
1446	0.0870916
1458	0.0710002
1470	0.0497596
1482	0.0429764
1494	0.0646132
1506	0.0471354
1518	0.030945
1530	0.030747
1542	0.0279248
1554	0.053671
1566	0.11774
1578	0.225577
1590	0.234489
1602	0.276079
1614	0.264196
1626	0.139871
1638	0.0497596
1650	0.0368369
1662	0.0433725
1674	0.0621376
1686	0.169381
1698	0.421545
1710	0.244985
1722	0.0738719
1734	0.0439667
1746	0.026786
1758	0.0203989
1770	0.0214882
1782	0.0345099
1794	0.0357972
1806	0.0250036
1818	0.00965484
1830	0.00361438
1842	0.00445608
1854	0.00643656
1866	0.00589193
1878	0.00599095
1890	0.0053473
1902	0.00445608
1914	0.00544632
1926	0.0041095
1938	0.00425803
1950	0.00198048
1962	0.0024756
1974	0.00198048
1986	0.00306974
1998	0.00113878
2010	0.00153487
2022	0.00242609
2034	0.0024756
2046	0.00227755
2058	0.000940728
2070	0.00153487
2082	0.000544632
2094	0.00158438
2106	0.00103975
2118	0.000940728
2130	0.00049512
2142	0.00113878
2154	0.000841704
2166	0.00133682
2178	0.00202999
2190	0.00103975
2202	0.00153487
2214	0.00074268
2226	0.00193097
2238	0.000544632
2250	0.00103975
2262	0.00049512
2274	0.00183194
2286	0.00158438
2298	0.00356486
2310	0.00505022
2322	0.00450559
2334	0.00648607
2346	0.00351535
2358	0.00698119
2370	0.00465413
2382	0.00475315
2394	0.00198048
2406	0.00306974
2418	0.00346584
2430	0.00311926
2442	0.00326779
2454	0.00351535
2466	0.00346584
2478	0.00306974
2490	0.00351535
2502	0.00198048
2514	0.00252511
2526	0.00148536
2538	0.00311926
2550	0.00306974
2562	0.00306974
2574	0.00202999
2586	0.00212902
2598	0.00212902
2610	0.00198048
2622	0.00302023
2634	0.000544632
2646	0.0016339
2658	0
2670	0.00148536
2682	0.000544632
2694	0.00103975
2706	0.000396096
2718	0.00103975
2730	0.00227755
2742	0.0041095
2754	0.0045551
2766	0.00217853
2778	0.00282218
2790	0.00237658
2802	0.00401047
2814	0.0037134
2826	0.00569388
2838	0.00638705
2850	0.00915972
2862	0.0130712
2874	0.0152992
2886	0.016438
2898	0.0166855
2910	0.0210426
2922	0.0299548
2934	0.0541661
2946	0.057731
2958	0.043521
2970	0.0395601
2982	0.0494625
2994	0.0438181
3006	0.0475315
3018	0.0578795
3030	0.0486208
3042	0.0430259
3054	0.0327274
3066	0.028717
3078	0.0253997
3090	0.0216863
3102	0.0142595
3114	0.0142595
3126	0.00911021
3138	0.00678314
3150	0.00485218
3162	0.00376291
3174	0.00420852
3186	0.00361438
3198	0.00415901
3210	0.00227755
3222	0.00282218
3234	0.00113878
3246	0.00292121
3258	0.00158438
3270	0.00336682
3282	0.00252511
3294	0.0033173
3306	0.00391145
3318	0.00430754
3330	0.00500071
3342	0.00415901
3354	0.00569388
3366	0.00564437
3378	0.0101004
3390	0.0065851
3402	0.00529778
3414	0.0028717
3426	0.00445608
3438	0.00158438
3450	0.00237658
3462	0.00257462
3474	0.00183194
3486	0.00257462
3498	0.00128731
3510	0.00237658
3522	0.000940728
3534	0.00252511
3546	0.0012378
3558	0.00425803
3570	0.00024756
3582	0.00509974
3594	0.00336682
3606	0.00391145
3618	0.00648607
3630	0.0232211
3642	0.163588
3654	0.17854
3666	0.0342128
3678	0.00252511
3690	0.00292121
3702	0.00445608
3714	0.0037134
3726	0.0065851
3738	0.0045551
3750	0.00519876
3762	0.00802094
3774	0.0118334
3786	0.0106946
3798	0.0118829
3810	0.0099024
3822	0.0101995
3834	0.01015
3846	0.0127741
3858	0.0113878
3870	0.0106946
3882	0.012279
3894	0.0124275
3906	0.0138634
3918	0.0131207
3930	0.0148041
3942	0.0133682
3954	0.00282218
3966	0.00415901
