Infrared Spectrum: Benzene, 1,2,3,4-tetrachloro-5-nitro-
Formula: C 6 H Cl 4 N O 2
CAS: 879-39-0
Origin: Sadtler Research Labs Under US-EPA Contract
1/CM	ABSORBANCE
450	0.000124694
462	0.0339168
474	0.0202004
486	0.0222579
498	0.00947674
510	0.0284302
522	0.0192029
534	0.0188911
546	0.0359742
558	0.0716367
570	0.0263104
582	0.0187664
594	0.00654644
606	0.00442664
618	0.0042396
630	0.00960144
642	0.0231931
654	0.176068
666	0.212042
678	0.0601025
690	0.0155244
702	0.00779338
714	0.0126564
726	0.0125941
738	0.0134046
750	0.0335427
762	0.019577
774	0.0334803
786	0.171517
798	0.044017
810	0.01222
822	0.0145269
834	0.0504387
846	0.105304
858	0.0316723
870	0.0575463
882	0.0513116
894	0.0177689
906	0.0236919
918	0.083732
930	0.0906525
942	0.0117212
954	0.0052995
966	0.0010599
978	0.000748164
990	0.00224449
1002	0.00405256
1014	0.00748164
1026	0.00810511
1038	0.00505011
1050	0.00349143
1062	0.00498776
1074	0.00667113
1086	0.0201381
1098	0.0705768
1110	0.030363
1122	0.00978848
1134	0.00829215
1146	0.0157114
1158	0.0518104
1170	0.0971366
1182	0.0752528
1194	0.0747541
1206	0.0386551
1218	0.0139657
1230	0.0264351
1242	0.0303006
1254	0.0259987
1266	0.0325451
1278	0.0231307
1290	0.0282432
1302	0.0370341
1314	0.0677712
1326	0.314042
1338	0.613183
1350	0.27308
1362	0.375641
1374	0.143585
1386	0.137725
1398	0.330688
1410	0.27495
1422	0.0465109
1434	0.0218215
1446	0.0189535
1458	0.0163973
1470	0.0162102
1482	0.0245024
1494	0.0337921
1506	0.0509998
1518	0.10917
1530	0.214972
1542	0.304814
1554	0.427389
1566	0.522593
1578	0.327945
1590	0.173262
1602	0.0826098
1614	0.0339168
1626	0.0197017
1638	0.0129058
1650	0.00723225
1662	0.00573592
1674	0.00243153
1686	0.00617235
1698	0.0042396
1710	0.00405256
1722	0.00461368
1734	0.0072946
1746	0.0092897
1758	0.00804276
1770	0.0042396
1782	0.00193276
1794	0.000685817
1806	0.00286796
1818	0.00380317
1830	0.00130929
1842	0.00249388
1854	0.00386551
1866	0.00249388
1878	0.00299266
1890	0.00311735
1902	0.00255623
1914	0.00255623
1926	0.00243153
1938	0.003055
1950	0.00380317
1962	0.00374082
1974	0.00249388
1986	0.00311735
1998	0.00324204
2010	0.00324204
2022	0.00280562
2034	0.00268092
2046	0.00224449
2058	0.00268092
2070	0.00261857
2082	0.00236919
2094	0.00205745
2106	0.00243153
2118	0.0031797
2130	0.00268092
2142	0.00268092
2154	0.00255623
2166	0.00274327
2178	0.00274327
2190	0.00280562
2202	0.00249388
2214	0.00230684
2226	0.00299266
2238	0.00286796
2250	0.00286796
2262	0.00261857
2274	0.0019951
2286	0.00261857
2298	0.00180806
2310	0.00062347
2322	0.00062347
2334	0.000685817
2346	0.000124694
2358	0.00168337
2370	0.000124694
2382	0.00174572
2394	0.003055
2406	0.00361613
2418	0.00311735
2430	0.00268092
2442	0.00261857
2454	0.00374082
2466	0.00505011
2478	0.00685817
2490	0.00505011
2502	0.00386551
2514	0.0031797
2526	0.00255623
2538	0.00293031
2550	0.003055
2562	0.00386551
2574	0.00392786
2586	0.00367847
2598	0.00311735
2610	0.00324204
2622	0.00299266
2634	0.0031797
2646	0.00336674
2658	0.00461368
2670	0.00523715
2682	0.00629705
2694	0.00685817
2706	0.00592297
2718	0.00561123
2730	0.00511245
2742	0.0052995
2754	0.00573592
2766	0.00617235
2778	0.00573592
2790	0.00430194
2802	0.00430194
2814	0.00436429
2826	0.00442664
2838	0.00511245
2850	0.00611001
2862	0.00760633
2874	0.00916501
2886	0.0117836
2898	0.0127811
2910	0.0127188
2922	0.0122824
2934	0.00985083
2946	0.00791807
2958	0.00642174
2970	0.00561123
2982	0.00511245
2994	0.00399021
3006	0.00380317
3018	0.00361613
3030	0.00361613
3042	0.00392786
3054	0.00430194
3066	0.00741929
3078	0.0173325
3090	0.0186418
3102	0.0105366
3114	0.00854154
3126	0.00904032
3138	0.00860389
3150	0.00579827
3162	0.00461368
3174	0.00405256
3186	0.00330439
3198	0.00361613
3210	0.003055
3222	0.00311735
3234	0.00330439
3246	0.00324204
3258	0.00342909
3270	0.003055
3282	0.00299266
3294	0.00336674
3306	0.00380317
3318	0.00293031
3330	0.00392786
3342	0.00286796
3354	0.00430194
3366	0.00330439
3378	0.00436429
3390	0.00392786
3402	0.00392786
3414	0.00349143
3426	0.00436429
3438	0.00374082
3450	0.00467603
3462	0.00430194
3474	0.00399021
3486	0.00430194
3498	0.003055
3510	0.00554888
3522	0.0042396
3534	0.00417725
3546	0.00392786
3558	0.00592297
3570	0.00336674
3582	0.0031797
3594	0.00473837
3606	0.00236919
3618	0.00442664
3630	0.00367847
3642	0.00386551
3654	0.00542419
3666	0.00174572
3678	0.00910266
3690	0.00523715
3702	0.0031797
3714	0.00324204
3726	0.00629705
3738	0.00810511
3750	0.00162102
3762	0.00330439
3774	0.00467603
3786	0.00448898
3798	0.00249388
3810	0
3822	0.00579827
3834	0.00392786
3846	0.00187041
3858	0.00985083
3870	0.00436429
3882	0.00280562
3894	0.00660878
3906	0.00592297
3918	0.000124694
3930	0.0052995
3942	0.00542419
3954	0.00349143
3966	0.00399021
