Infrared Spectrum: Phenol, 2,4,6-trichloro-
Formula: C 6 H 3 Cl 3 O
CAS: 88-06-2
Origin: Sadtler Research Labs Under US-EPA Contract
1/CM	ABSORBANCE
450	0.0269394
462	0.0199405
474	0.0195443
486	0.0195443
498	0.0158467
510	0.0146582
522	0.00950803
534	0.00845158
546	0.0184878
558	0.0520301
570	0.112248
582	0.0500492
594	0.0167711
606	0.0253548
618	0.0232419
630	0.0077913
642	0.000792336
654	0.00924392
666	0.011885
678	0.0404091
690	0.0468799
702	0.0497851
714	0.127302
726	0.470912
738	0.3102
750	0.0709141
762	0.0464837
774	0.0450311
786	0.156618
798	0.282996
810	0.32631
822	0.149091
834	0.0139979
846	0.0861005
858	0.330404
870	0.212214
882	0.0262791
894	0.0110927
906	0.0182237
918	0.016507
930	0.00964009
942	0.00515018
954	0.00686691
966	0.00977214
978	0.00897981
990	0.00594252
1002	0.00726308
1014	0.00752719
1026	0.00845158
1038	0.00699897
1050	0.00937598
1062	0.0163749
1074	0.0277318
1086	0.0154506
1098	0.0266753
1110	0.0648395
1122	0.0456914
1134	0.0345987
1146	0.0842517
1158	0.309803
1170	0.561634
1182	0.136414
1194	0.0923071
1206	0.242587
1218	0.358928
1230	0.320236
1242	0.0422579
1254	0.0621984
1266	0.240474
1278	0.24087
1290	0.0618022
1302	0.0438426
1314	0.339384
1326	0.479627
1338	0.0253548
1350	0.0219213
1362	0.0551994
1374	0.0442388
1386	0.179596
1398	0.386132
1410	0.110003
1422	0.131132
1434	0.110531
1446	0.232683
1458	0.49587
1470	1.32056
1482	0.569558
1494	0.0570482
1506	0.0375039
1518	0.0186199
1530	0.00964009
1542	0.00581046
1554	0.0419938
1566	0.170616
1578	0.224231
1590	0.0785733
1602	0.0209969
1614	0.00911186
1626	0.00303729
1638	0.00224495
1650	0.0011885
1662	0.00475402
1674	0.00264112
1686	0.00066028
1698	0.00382962
1710	0.0223175
1722	0.023506
1734	0.016507
1746	0.00686691
1758	0.0021129
1770	0.00066028
1782	0.000924392
1794	0.000132056
1806	0.00369757
1818	0.00356551
1830	0.00158467
1842	0.00158467
1854	0.00356551
1866	0.00237701
1878	0.00435785
1890	0.00343346
1902	0.00369757
1914	0.00224495
1926	0.00356551
1938	0.00475402
1950	0.00607458
1962	0.00488607
1974	0.00515018
1986	0.00581046
1998	0.00818747
2010	0.00647074
2022	0.00356551
2034	0.00264112
2046	0.00184878
2058	0.0021129
2070	0.00198084
2082	0.0021129
2094	0.00198084
2106	0.00158467
2118	0.00198084
2130	0.00277318
2142	0.00237701
2154	0.00198084
2166	0.00145262
2178	0.00224495
2190	0.00316934
2202	0.00396168
2214	0.00277318
2226	0.00277318
2238	0.00369757
2250	0.0044899
2262	0.00343346
2274	0.00316934
2286	0.00475402
2298	0.00805542
2310	0.0109606
2322	0.00858364
2334	0.00607458
2346	0.0099042
2358	0.00303729
2370	0.00581046
2382	0.00699897
2394	0.00369757
2406	0.00264112
2418	0.00316934
2430	0.00422579
2442	0.00462196
2454	0.00396168
2466	0.00475402
2478	0.00805542
2490	0.00897981
2502	0.00554635
2514	0.00250906
2526	0.00396168
2538	0.0054143
2550	0.00475402
2562	0.00237701
2574	0.00132056
2586	0.00184878
2598	0.00237701
2610	0.00290523
2622	0.00382962
2634	0.0044899
2646	0.0033014
2658	0.00224495
2670	0.00264112
2682	0.00237701
2694	0.00237701
2706	0.00250906
2718	0.0033014
2730	0.00422579
2742	0.00435785
2754	0.00382962
2766	0.00264112
2778	0.00356551
2790	0.00369757
2802	0.00356551
2814	0.00277318
2826	0.00356551
2838	0.00515018
2850	0.00607458
2862	0.00594252
2874	0.00515018
2886	0.00581046
2898	0.00435785
2910	0.00290523
2922	0.00250906
2934	0.00356551
2946	0.00369757
2958	0.00277318
2970	0.00316934
2982	0.00343346
2994	0.0033014
3006	0.0033014
3018	0.00264112
3030	0.00382962
3042	0.00356551
3054	0.0033014
3066	0.00290523
3078	0.00382962
3090	0.0105645
3102	0.00713102
3114	0.00290523
3126	0.00198084
3138	0.0033014
3150	0.00396168
3162	0.0066028
3174	0.00620663
3186	0.00435785
3198	0.00316934
3210	0.00435785
3222	0.00515018
3234	0.00409374
3246	0.00316934
3258	0.00356551
3270	0.00818747
3282	0.00765925
3294	0.00356551
3306	0.00303729
3318	0.00277318
3330	0.00303729
3342	0.00316934
3354	0.00303729
3366	0.00369757
3378	0.0033014
3390	0.00343346
3402	0.00343346
3414	0.00250906
3426	0.00264112
3438	0.0033014
3450	0.00184878
3462	0.00290523
3474	0.00409374
3486	0.00303729
3498	0.00264112
3510	0.00303729
3522	0.0054143
3534	0.00805542
3546	0.0161108
3558	0.0930995
3570	0.746513
3582	0.401846
3594	0.0422579
3606	0.0114889
3618	0.00633869
3630	0.00594252
3642	0.00607458
3654	0.0066028
3666	0.00488607
3678	0.00237701
3690	0.00515018
3702	0.00501813
3714	0.00396168
3726	0.00343346
3738	0.00343346
3750	0.00818747
3762	0.00686691
3774	0.00792336
3786	0.00805542
3798	0.00792336
3810	0.00739514
3822	0.00911186
3834	0.00673486
3846	0.00792336
3858	0.0124133
3870	0.011885
3882	0.00699897
3894	0.00620663
3906	0.00620663
3918	0.00752719
3930	0.00554635
3942	0.0105645
3954	0.00937598
3966	0.00964009
