Infrared Spectrum: Benzenamine, 2,4,6-trimethyl-
Formula: C 9 H 13 N
CAS: 88-05-1
Origin: Sadtler Research Labs Under US-EPA Contract
1/CM	ABSORBANCE
450	0.120135
462	0.0924058
474	0.0810093
486	0.0971967
498	0.0969789
510	0.105835
522	0.117013
534	0.111569
546	0.128047
558	0.131604
570	0.115634
582	0.102205
594	0.110626
606	0.106996
618	0.108738
630	0.111642
642	0.104746
654	0.123619
666	0.14467
678	0.122821
690	0.0871068
702	0.0773073
714	0.0903733
726	0.115126
738	0.104891
750	0.068887
762	0.0392706
774	0.0246077
786	0.0192361
798	0.0259143
810	0.019962
822	0.0189457
834	0.0363671
846	0.108158
858	0.138064
870	0.0381092
882	0.0100899
894	0.00384722
906	0.00602489
918	0.00508123
930	0.0013066
942	0.00341168
954	0.00377463
966	0.00602489
978	0.0131386
990	0.0281645
1002	0.079485
1014	0.105544
1026	0.0378915
1038	0.0205427
1050	0.0193087
1062	0.0170584
1074	0.0196716
1086	0.0206153
1098	0.0184376
1110	0.0143
1122	0.0121224
1134	0.0202523
1146	0.0597407
1158	0.0825337
1170	0.0153889
1182	0.000653301
1194	0.00268579
1206	0.00740408
1218	0.0194539
1230	0.0399965
1242	0.178279
1254	0.249779
1266	0.0855098
1278	0.0259869
1290	0.0424646
1302	0.13458
1314	0.0933495
1326	0.0100899
1338	0.00740408
1350	0.00442793
1362	0.00972693
1374	0.0280919
1386	0.0406498
1398	0.0280919
1410	0.0336813
1422	0.040795
1434	0.0965434
1446	0.187715
1458	0.178569
1470	0.188368
1482	0.406571
1494	0.72589
1506	0.34487
1518	0.1001
1530	0.061991
1542	0.0484169
1554	0.0346975
1566	0.034625
1578	0.0419564
1590	0.0597407
1602	0.141766
1614	0.189893
1626	0.246004
1638	0.264442
1650	0.115852
1662	0.0409402
1674	0.0250432
1686	0.0205427
1698	0.0206879
1710	0.0185102
1722	0.0348427
1734	0.0352783
1746	0.019599
1758	0.0179295
1770	0.0101625
1782	0.00486346
1794	0.00515382
1806	0.00239544
1818	0.0019599
1830	0.00391981
1842	0.00341168
1854	0.0019599
1866	0.00493605
1878	0.00566194
1890	0.00798479
1902	0.00776702
1914	0.00820256
1926	0.0066056
1938	0.00479087
1950	0.00486346
1962	0.0039924
1974	0.00348427
1986	0.00268579
1998	0.0026132
2010	0.00312133
2022	0.00246803
2034	0.000871068
2046	0.00188731
2058	0.00246803
2070	0.00254062
2082	0.0019599
2094	0.00275838
2106	0.00217767
2118	0.0019599
2130	0.0019599
2142	0.00348427
2154	0.00362945
2166	0.00341168
2178	0.0026132
2190	0.00275838
2202	0.00319392
2214	0.00312133
2226	0.00283097
2238	0.00232285
2250	0.00268579
2262	0.00348427
2274	0.00217767
2286	0.00297615
2298	0.00319392
2310	0.00333909
2322	0.0046457
2334	0.00435534
2346	0.00355686
2358	0.00421016
2370	0.000290356
2382	0.00181473
2394	0.00479087
2406	0.0046457
2418	0.00341168
2430	0.00268579
2442	0.00275838
2454	0.00210508
2466	0.00275838
2478	0.00413757
2490	0.00435534
2502	0.0046457
2514	0.00333909
2526	0.00304874
2538	0.00355686
2550	0.00348427
2562	0.00377463
2574	0.00159696
2586	0.00152437
2598	0.00348427
2610	0.00558935
2622	0.00493605
2634	0.00333909
2646	0.00333909
2658	0.00333909
2670	0.00188731
2682	0.00246803
2694	0.00246803
2706	0.0046457
2718	0.00551676
2730	0.0168406
2742	0.0391981
2754	0.0240995
2766	0.00943657
2778	0.0079122
2790	0.00965434
2802	0.0140823
2814	0.02243
2826	0.0309229
2838	0.047328
2850	0.109972
2862	0.273661
2874	0.38748
2886	0.301825
2898	0.245714
2910	0.35046
2922	0.516616
2934	0.555015
2946	0.342185
2958	0.188731
2970	0.20383
2982	0.270539
2994	0.214863
3006	0.264587
3018	0.327231
3030	0.209927
3042	0.120425
3054	0.0765814
3066	0.0482717
3078	0.0352783
3090	0.0283823
3102	0.0233737
3114	0.0182924
3126	0.0135741
3138	0.0092188
3150	0.00834774
3162	0.00783961
3174	0.00609748
3186	0.0039924
3198	0.00667819
3210	0.00805738
3222	0.00842032
3234	0.00834774
3246	0.005299
3258	0.00435534
3270	0.00297615
3282	0.00450052
3294	0.00377463
3306	0.00471829
3318	0.00391981
3330	0.00254062
3342	0.00239544
3354	0.00268579
3366	0.00159696
3378	0.00217767
3390	0.00646042
3402	0.0201797
3414	0.0383996
3426	0.0222848
3438	0.00907363
3450	0.00871068
3462	0.011832
3474	0.0283097
3486	0.069758
3498	0.0771621
3510	0.0373107
3522	0.015534
3534	0.00943657
3546	0.00580712
3558	0.00471829
3570	0.00631524
3582	0.00421016
3594	0.00297615
3606	0.00268579
3618	0.00304874
3630	0.00580712
3642	0.00551676
3654	0.00515382
3666	0.00319392
3678	0.00188731
3690	0.000508123
3702	0.00537159
3714	0.00471829
3726	0.0039924
3738	0.00159696
3750	0.000290356
3762	0.00225026
3774	0.0039924
3786	0.00421016
3798	0.00391981
3810	0.00137919
3822	0.00152437
3834	0.000943657
3846	0
3858	0.00210508
3870	0.00544418
3882	0.00319392
3894	0.00428275
3906	0.0019599
3918	0.00290356
3930	0.00421016
3942	0.00188731
3954	0.00188731
3966	0.00297615
