Infrared Spectrum: Butanoic acid, 2-ethyl-
Formula: C 6 H 12 O 2
CAS: 88-09-5
Origin: Sadtler Research Labs Under US-EPA Contract
1/CM	ABSORBANCE
450	0.0253727
462	0.00404719
474	0.0244388
486	0.0375143
498	0.0437407
510	0.035335
522	0.0426511
534	0.0641323
546	0.0949532
558	0.136203
570	0.222595
582	0.303072
594	0.273963
606	0.216524
618	0.175586
630	0.121571
642	0.0515238
654	0.0245944
666	0.0180567
678	0.0185237
690	0.0135425
702	0.0203916
714	0.0384483
726	0.0795428
738	0.131534
750	0.134024
762	0.0772079
774	0.0695805
786	0.0575946
798	0.0298869
810	0.0122972
822	0.00622644
834	0.009184
846	0.0172784
858	0.0161887
870	0.009184
882	0.0105849
894	0.0182123
906	0.0269294
918	0.0322218
930	0.0228822
942	0.0115189
954	0.00778305
966	0.00544813
978	0.00482549
990	0.00731607
1002	0.0132312
1014	0.0303539
1026	0.0507455
1038	0.0768965
1050	0.138383
1062	0.227421
1074	0.256374
1086	0.387596
1098	0.627625
1110	0.655955
1122	0.533606
1134	0.396469
1146	0.286105
1158	0.342921
1170	0.411412
1182	0.302761
1194	0.128887
1206	0.0582172
1218	0.0457643
1230	0.0400049
1242	0.0426511
1254	0.055104
1266	0.0708258
1278	0.0999344
1290	0.110675
1302	0.0848352
1314	0.0594625
1326	0.0568163
1338	0.0603965
1350	0.0691135
1362	0.0770522
1374	0.0955759
1386	0.14243
1398	0.145699
1410	0.0867032
1422	0.0424955
1434	0.0337784
1446	0.0656889
1458	0.14134
1470	0.155194
1482	0.0754956
1494	0.0245944
1506	0.00856135
1518	0.00529247
1530	0.00622644
1542	0.00233491
1554	0.0056038
1566	0.00716041
1578	0.00575946
1590	0.00482549
1602	0.00591512
1614	0.0056038
1626	0.00342454
1638	0.00622644
1650	0.00451417
1662	0.009184
1674	0.00965098
1686	0.0113633
1698	0.0177454
1710	0.0495002
1722	0.127175
1734	0.165156
1746	0.263378
1758	0.751531
1770	1.48781
1782	0.991249
1794	0.31428
1806	0.151769
1818	0.0823447
1830	0.0345567
1842	0.0165001
1854	0.0118302
1866	0.00809437
1878	0.00793871
1890	0.00544813
1902	0.00482549
1914	0.00420285
1926	0.00311322
1938	0.00264624
1950	0.0028019
1962	0.00217925
1974	0.00186793
1986	0.00233491
1998	0.00249058
2010	0.0028019
2022	0.00249058
2034	0.000778305
2046	0.00217925
2058	0.00155661
2070	0.000622644
2082	0.00186793
2094	0.00171227
2106	0.000933966
2118	0.000778305
2130	0.000933966
2142	0.00140095
2154	0.000933966
2166	0.00140095
2178	0.00295756
2190	0.00466983
2202	0.00513681
2214	0.00482549
2226	0.00435851
2238	0.00389152
2250	0.00311322
2262	0.0028019
2274	0.00186793
2286	0.00233491
2298	0.00233491
2310	0.00249058
2322	0.0028019
2334	0.00155661
2346	0.000622644
2358	0.00326888
2370	0.00124529
2382	0.00186793
2394	0.00295756
2406	0.0035802
2418	0.00373586
2430	0.00249058
2442	0.00155661
2454	0.00155661
2466	0.00217925
2478	0.00249058
2490	0.00295756
2502	0.00249058
2514	0.00171227
2526	0.00217925
2538	0.00249058
2550	0.00171227
2562	0.00295756
2574	0.00311322
2586	0.00233491
2598	0.00326888
2610	0.00451417
2622	0.00513681
2634	0.00575946
2646	0.00435851
2658	0.00591512
2670	0.00747173
2682	0.00575946
2694	0.00591512
2706	0.00747173
2718	0.00684908
2730	0.00809437
2742	0.0121416
2754	0.0155661
2766	0.0154104
2778	0.0144765
2790	0.0163444
2802	0.0191463
2814	0.0199246
2826	0.0211699
2838	0.0287973
2850	0.0410945
2862	0.0733163
2874	0.160642
2886	0.276921
2898	0.251081
2910	0.187572
2922	0.219482
2934	0.34619
2946	0.493912
2958	0.475544
2970	0.694248
2982	0.705611
2994	0.275676
3006	0.0778305
3018	0.0452974
3030	0.0365803
3042	0.0336228
3054	0.0312879
3066	0.0291086
3078	0.0287973
3090	0.0263067
3102	0.0241275
3114	0.0225708
3126	0.0235048
3138	0.0225708
3150	0.0227265
3162	0.0231935
3174	0.0214812
3186	0.0197689
3198	0.0158774
3210	0.0154104
3222	0.0140095
3234	0.0154104
3246	0.0127642
3258	0.0126085
3270	0.0107406
3282	0.0104293
3294	0.00871702
3306	0.0104293
3318	0.00965098
3330	0.00871702
3342	0.00762739
3354	0.00887268
3366	0.00840569
3378	0.00762739
3390	0.00809437
3402	0.00731607
3414	0.00498115
3426	0.00420285
3438	0.00529247
3450	0.0056038
3462	0.00264624
3474	0.00684908
3486	0.00575946
3498	0.00778305
3510	0.0119859
3522	0.017434
3534	0.0160331
3546	0.0230378
3558	0.142118
3570	0.40036
3582	0.329846
3594	0.055571
3606	0.00933966
3618	0.00700474
3630	0.00544813
3642	0.00249058
3654	0.00435851
3666	0.00233491
3678	0.00217925
3690	0.00389152
3702	0.000311322
3714	0.00186793
3726	0.00544813
3738	0.00326888
3750	0.0028019
3762	0.00326888
3774	0.0028019
3786	0.00420285
3798	0.00389152
3810	0.000778305
3822	0.000622644
3834	0.0028019
3846	0.000311322
3858	0.00342454
3870	0.00326888
3882	0.00466983
3894	0.00186793
3906	0.00513681
3918	0.00217925
3930	0.00264624
3942	0.00513681
3954	0.00311322
3966	0.009184
