Infrared Spectrum: Benzene, 1-chloro-2-(trifluoromethyl)-
Formula: C 7 H 4 Cl F 3
CAS: 88-16-4
Origin: Sadtler Research Labs Under US-EPA Contract
1/CM	ABSORBANCE
450	0.0271557
462	0.0370942
474	0.00811872
486	0.0163774
498	0.0117582
510	0.0208567
522	0.00195969
534	0.00419934
546	0.00671894
558	0.00881861
570	0.00433932
582	0.00545914
594	0.0167974
606	0.0169373
618	0.00755881
630	0.00545914
642	0.0769879
654	0.0718087
666	0.00587908
678	0.00531916
690	0.00489923
702	0.0362543
714	0.0837068
726	0.0372341
738	0.0450729
750	0.140958
762	0.360443
774	0.0923855
786	0.0326149
798	0.0131579
810	0.00461927
822	0.00517919
834	0.00867864
846	0.00545914
858	0.0057391
870	0.00881861
882	0.00419934
894	0.00503921
906	0.00587908
918	0.00475925
930	0.00601905
942	0.0141378
954	0.0243562
966	0.00881861
978	0.00335947
990	0.0069989
1002	0.012878
1014	0.0285555
1026	0.136619
1038	0.356944
1050	0.172593
1062	0.0377941
1074	0.0202968
1086	0.0466127
1098	0.187151
1110	0.386339
1122	0.202688
1134	0.169793
1146	0.287095
1158	0.76106
1170	1.18057
1182	0.909997
1194	0.25518
1206	0.107923
1218	0.0732085
1230	0.0349945
1242	0.0293954
1254	0.156355
1266	0.204088
1278	0.0690092
1290	0.0988245
1302	0.18967
1314	1.14194
1326	1.01778
1338	0.0552913
1350	0.0384939
1362	0.0239362
1374	0.0144177
1386	0.0104984
1398	0.0057391
1410	0.0095185
1422	0.0359743
1434	0.0947651
1446	0.201008
1458	0.119821
1470	0.050672
1482	0.082587
1494	0.044513
1506	0.0114782
1518	0.00559912
1530	0.00377941
1542	0.00433932
1554	0.0103584
1566	0.0211367
1578	0.06383
1590	0.107083
1602	0.108483
1614	0.0471726
1626	0.025476
1638	0.0163774
1650	0.00349945
1662	0.00419934
1674	0.00237963
1686	0.00307952
1698	0.00265958
1710	0.00965848
1722	0.00601905
1734	0.00419934
1746	0.00713888
1758	0.00629901
1770	0.00489923
1782	0.00433932
1794	0.00279956
1806	0.00895859
1818	0.0153976
1830	0.00643899
1842	0.00559912
1854	0.00643899
1866	0.00321949
1878	0.00419934
1890	0.00503921
1902	0.00741883
1914	0.00643899
1926	0.0131579
1938	0.0121781
1950	0.00839868
1962	0.0113382
1974	0.0057391
1986	0.00279956
1998	0.00279956
2010	0.00237963
2022	0.0025196
2034	0.00279956
2046	0.00349945
2058	0.00363943
2070	0.00335947
2082	0.00293954
2094	0.0044793
2106	0.00587908
2118	0.00279956
2130	0.00237963
2142	0.00223965
2154	0.00237963
2166	0.00237963
2178	0.00293954
2190	0.00321949
2202	0.00363943
2214	0.00377941
2226	0.00433932
2238	0.00391938
2250	0.00377941
2262	0.00433932
2274	0.00489923
2286	0.00643899
2298	0.00657897
2310	0.00741883
2322	0.00909857
2334	0.00923855
2346	0.00517919
2358	0.00769879
2370	0.000139978
2382	0.000139978
2394	0.00195969
2406	0.00223965
2418	0.00195969
2430	0.00237963
2442	0.00293954
2454	0.0025196
2466	0.00209967
2478	0.00265958
2490	0.0025196
2502	0.00139978
2514	0.00153976
2526	0.000979846
2538	0.00139978
2550	0.00223965
2562	0.00195969
2574	0.00195969
2586	0.00195969
2598	0.00181971
2610	0.00167974
2622	0.00139978
2634	0.00265958
2646	0.00153976
2658	0.000839868
2670	0.00139978
2682	0.00111982
2694	0.00153976
2706	0.00111982
2718	0.00153976
2730	0.000839868
2742	0.00139978
2754	0.000139978
2766	0.000279956
2778	0.000979846
2790	0.00069989
2802	0.00069989
2814	0.0012598
2826	0.00069989
2838	0.000419934
2850	0.00139978
2862	0.00167974
2874	0.000839868
2886	0.00167974
2898	0.00181971
2910	0.00279956
2922	0.00237963
2934	0.00223965
2946	0.00209967
2958	0.00139978
2970	0.000979846
2982	0.000979846
2994	0.00391938
3006	0.00545914
3018	0.00391938
3030	0.00517919
3042	0.00629901
3054	0.00839868
3066	0.0155376
3078	0.0422734
3090	0.0419934
3102	0.0158175
3114	0.00559912
3126	0.00321949
3138	0.00181971
3150	0.00307952
3162	0.0044793
3174	0.00335947
3186	0.00195969
3198	0.00363943
3210	0.00209967
3222	0.00209967
3234	0.00195969
3246	0.00293954
3258	0.00209967
3270	0.00237963
3282	0.00307952
3294	0.00265958
3306	0.0025196
3318	0.00391938
3330	0.00279956
3342	0.00391938
3354	0.00433932
3366	0.00363943
3378	0.00363943
3390	0.00321949
3402	0.00307952
3414	0.00321949
3426	0.00349945
3438	0.00419934
3450	0.0057391
3462	0.0025196
3474	0.00405936
3486	0.00503921
3498	0.00461927
3510	0.0044793
3522	0.00377941
3534	0.00419934
3546	0.00363943
3558	0.00349945
3570	0.00377941
3582	0.00363943
3594	0.00265958
3606	0.00377941
3618	0.00419934
3630	0.00475925
3642	0.00293954
3654	0.00237963
3666	0.00461927
3678	0.00475925
3690	0.0069989
3702	0.00111982
3714	0.00419934
3726	0.00531916
3738	0.00461927
3750	0.00265958
3762	0.00503921
3774	0.00349945
3786	0.00363943
3798	0.0044793
3810	0.00279956
3822	0.00461927
3834	0.00223965
3846	0.00419934
3858	0.00461927
3870	0.00503921
3882	0.00153976
3894	0.00657897
3906	0.00517919
3918	0.00769879
3930	0.00713888
3942	0.00881861
3954	0.00643899
3966	0.0113382
