Infrared Spectrum: Benzenesulfonamide, 2-methyl-
Formula: C 7 H 9 N O 2 S
CAS: 88-19-7
Origin: Sadtler Research Labs Under US-EPA Contract
1/CM	ABSORBANCE
450	0.0334495
462	0.0441675
474	0.0426364
486	0.062659
498	0.073318
510	0.0581833
522	0.0620701
534	0.106179
546	0.149581
558	0.125553
570	0.108299
582	0.231909
594	0.361113
606	0.19363
618	0.080856
630	0.0604211
642	0.0515287
654	0.0482309
666	0.0477598
678	0.0892772
690	0.124376
702	0.0805026
714	0.0890417
726	0.0708447
738	0.0956374
750	0.203583
762	0.150817
774	0.0594789
786	0.0469942
798	0.0542966
810	0.0717869
822	0.10294
834	0.17084
846	0.246337
858	0.205997
870	0.11195
882	0.0630123
894	0.041223
906	0.0293272
918	0.0179615
930	0.0114836
942	0.00836238
954	0.00712569
966	0.00547677
978	0.00371007
990	0.0023556
1002	0.00270894
1014	0.00388674
1026	0.005889
1038	0.0130736
1050	0.0238504
1062	0.0456986
1074	0.0468175
1086	0.0194926
1098	0.0108358
1110	0.0102469
1122	0.0219071
1134	0.0519999
1146	0.0574766
1158	0.157413
1170	0.506572
1182	0.500683
1194	0.145576
1206	0.0475242
1218	0.0205526
1230	0.0143692
1242	0.0133091
1254	0.0149581
1266	0.0252638
1278	0.0515876
1290	0.0372774
1302	0.0167248
1314	0.0191981
1326	0.0280905
1338	0.0548855
1350	0.146106
1362	0.405988
1374	0.559573
1386	0.276253
1398	0.0846838
1410	0.0371007
1422	0.0358051
1434	0.0459342
1446	0.05836
1458	0.0757914
1470	0.0884528
1482	0.0684302
1494	0.0317417
1506	0.0253816
1518	0.0309761
1530	0.0456397
1542	0.0830349
1554	0.105884
1566	0.0675468
1578	0.0348629
1590	0.0290917
1602	0.0279139
1614	0.0164303
1626	0.00677235
1638	0.00388674
1650	0
1662	0.0017667
1674	0.00100113
1686	0.00306228
1698	0.00494676
1710	0.00441675
1722	0.00223782
1734	0.00318006
1746	0.0035334
1758	0.00371007
1770	0.00270894
1782	0.00229671
1794	0.00188448
1806	0.00477009
1818	0.00583011
1830	0.00376896
1842	0.00541788
1854	0.00341562
1866	0.00212004
1878	0.00200226
1890	0.00212004
1902	0.00371007
1914	0.00500565
1926	0.00812682
1938	0.00753792
1950	0.00577122
1962	0.00618345
1974	0.00359229
1986	0.00164892
1998	0.00170781
2010	0.0017667
2022	0.0017667
2034	0.00164892
2046	0.00194337
2058	0.00194337
2070	0.00188448
2082	0.00241449
2094	0.00241449
2106	0.00300339
2118	0.00365118
2130	0.00300339
2142	0.00282672
2154	0.00253227
2166	0.00229671
2178	0.00259116
2190	0.00276783
2202	0.00288561
2214	0.00318006
2226	0.00323895
2238	0.00406341
2250	0.00382785
2262	0.00341562
2274	0.00329784
2286	0.00382785
2298	0.00429897
2310	0.00500565
2322	0.00512343
2334	0.00506454
2346	0.00612456
2358	0.00429897
2370	0.00453453
2382	0.00512343
2394	0.0041223
2406	0.00429897
2418	0.00424008
2430	0.00382785
2442	0.00382785
2454	0.00365118
2466	0.00359229
2478	0.00359229
2490	0.00388674
2502	0.00447564
2514	0.00477009
2526	0.00565344
2538	0.00671346
2550	0.00600678
2562	0.00559455
2574	0.00459342
2586	0.00477009
2598	0.00459342
2610	0.00477009
2622	0.00459342
2634	0.0047112
2646	0.00506454
2658	0.00459342
2670	0.00394563
2682	0.00323895
2694	0.00288561
2706	0.0023556
2718	0.00259116
2730	0.0029445
2742	0.00382785
2754	0.00429897
2766	0.00429897
2778	0.00382785
2790	0.00394563
2802	0.00382785
2814	0.00429897
2826	0.00494676
2838	0.00594789
2850	0.00777348
2862	0.0110713
2874	0.0143103
2886	0.0150758
2898	0.0138391
2910	0.014428
2922	0.0189037
2934	0.0313295
2946	0.0405163
2958	0.0330962
2970	0.0276194
2982	0.0297395
2994	0.0259116
3006	0.020317
3018	0.0236738
3030	0.0290917
3042	0.0242627
3054	0.0348629
3066	0.0758503
3078	0.0767337
3090	0.0297395
3102	0.0157236
3114	0.010718
3126	0.00842127
3138	0.00836238
3150	0.00700791
3162	0.00659568
3174	0.00571233
3186	0.00524121
3198	0.00500565
3210	0.00500565
3222	0.00524121
3234	0.005889
3246	0.00565344
3258	0.00630123
3270	0.00777348
3282	0.00795015
3294	0.0076557
3306	0.00777348
3318	0.00777348
3330	0.010188
3342	0.0196693
3354	0.0498209
3366	0.0868039
3378	0.0742014
3390	0.0378074
3402	0.017667
3414	0.0131914
3426	0.0131914
3438	0.0190804
3450	0.0392796
3462	0.063189
3474	0.0621878
3486	0.0451686
3498	0.0275016
3510	0.0161359
3522	0.0107769
3534	0.0094224
3546	0.0070668
3558	0.00583011
3570	0.0070668
3582	0.00700791
3594	0.005889
3606	0.00636012
3618	0.00535899
3630	0.00441675
3642	0.00653679
3654	0.00429897
3666	0.00694902
3678	0.00182559
3690	0.00435786
3702	0.00376896
3714	0.00400452
3726	0.00400452
3738	0.00365118
3750	0.00382785
3762	0.00253227
3774	0.00429897
3786	0.00477009
3798	0.00394563
3810	0.00447564
3822	0.00206115
3834	0.00265005
3846	0.00276783
3858	0.00359229
3870	0.00323895
3882	0.00406341
3894	0.00447564
3906	0.00318006
3918	0.00441675
3930	0.00624234
3942	0.00583011
3954	0.00630123
3966	0.00665457
