Infrared Spectrum: Phenol, 2-(1,1-dimethylethyl)-
Formula: C 10 H 14 O
CAS: 88-18-6
Origin: Sadtler Research Labs Under US-EPA Contract
1/CM	ABSORBANCE
450	0.0191985
462	0.00338797
474	0.0285806
486	0.0778364
498	0.0840043
510	0.0244108
522	0.0162449
534	0.0468235
546	0.0456941
558	0.0226733
570	0.0258007
582	0.0197197
594	0.0186773
606	0.005386
618	0.00182429
630	0.00920833
642	0.0103376
654	0.00677594
666	0.00460416
678	0.0146812
690	0.0178954
702	0.008079
714	0.0106851
726	0.0602016
738	0.386315
750	0.602364
762	0.144293
774	0.0189379
786	0.0122488
798	0.0691493
810	0.114148
822	0.0336191
834	0.0224127
846	0.0815719
858	0.0852205
870	0.0158105
882	0.0059941
894	0.00495165
906	0.00364858
918	0.0101639
930	0.0310998
942	0.0225865
954	0.0122488
966	0.00999017
978	0.0125094
990	0.0158105
1002	0.0178954
1014	0.0310998
1026	0.0436092
1038	0.0717554
1050	0.168095
1062	0.0997279
1074	0.0964268
1086	0.190334
1098	0.0932995
1110	0.0514276
1122	0.181126
1134	0.187294
1146	0.113801
1158	0.226646
1170	0.288325
1182	0.543552
1194	0.489171
1206	0.220218
1218	0.120229
1230	0.203886
1242	0.396566
1254	0.260526
1266	0.160451
1278	0.149852
1290	0.198153
1302	0.134563
1314	0.150721
1326	0.306655
1338	0.233162
1350	0.0554237
1362	0.149418
1374	0.191898
1386	0.0725373
1398	0.092952
1410	0.0588117
1422	0.0581167
1434	0.184253
1446	0.412116
1458	0.275902
1470	0.150982
1482	0.217699
1494	0.284329
1506	0.194417
1518	0.0384839
1530	0.0211965
1542	0.0200672
1554	0.0167661
1566	0.0414375
1578	0.103811
1590	0.1019
1602	0.0856548
1614	0.0815719
1626	0.0283199
1638	0.0111195
1650	0.00903458
1662	0.0132044
1674	0.0210228
1686	0.0150287
1698	0.0125963
1710	0.00981642
1722	0.00582036
1734	0.00608097
1746	0.00469103
1758	0.0111195
1770	0.0172873
1782	0.0137256
1794	0.0112932
1806	0.00920833
1818	0.00668907
1830	0.0047779
1842	0.0066022
1854	0.008079
1866	0.00799213
1878	0.0135519
1890	0.021544
1902	0.0119013
1914	0.00990329
1926	0.0172873
1938	0.00946894
1950	0.00321423
1962	0.00243239
1974	0.000955581
1986	0.00104245
1998	0.00199803
2010	0.00225865
2022	0.00217177
2034	0.00382232
2046	0.00547287
2058	0.00347484
2070	0.00321423
2082	0.00364858
2094	0.00373545
2106	0.00182429
2118	8.6871e-05
2130	0.000260613
2142	0.00138994
2154	0.00121619
2166	0.00182429
2178	0.0020849
2190	0.000608097
2202	0.000608097
2214	0.00156368
2226	0.002693
2238	0.00277987
2250	0.00338797
2262	0.00251926
2274	0.00225865
2286	0.00416981
2298	0.00799213
2310	0.0104245
2322	0.00999017
2334	0.00512539
2346	0.00104245
2358	0.00686281
2370	0.000347484
2382	0.00356171
2394	0.00721029
2406	0.00764465
2418	0.00816587
2430	0.00773152
2442	0.0059941
2454	0.00634158
2466	0.00651532
2478	0.00573349
2490	0.00460416
2502	0.00295361
2514	0.00460416
2526	0.0059941
2538	0.00512539
2550	0.00286674
2562	0.00425668
2574	0.00451729
2586	0.00356171
2598	0.00434355
2610	0.00512539
2622	0.00547287
2634	0.00382232
2646	0.00373545
2658	0.00373545
2670	0.00512539
2682	0.00425668
2694	0.00382232
2706	0.00312736
2718	0.00833962
2730	0.011467
2742	0.00920833
2754	0.00990329
2766	0.00894771
2778	0.00842649
2790	0.0104245
2802	0.00999017
2814	0.0138125
2826	0.0190247
2838	0.0220652
2850	0.0338797
2862	0.0860023
2874	0.208838
2886	0.273991
2898	0.248712
2910	0.276858
2922	0.352609
2934	0.324289
2946	0.382146
2958	0.68602
2970	0.86871
2982	0.483003
2994	0.168877
3006	0.174263
3018	0.158626
3030	0.130133
3042	0.0999885
3054	0.0978167
3066	0.162101
3078	0.158626
3090	0.109718
3102	0.0734929
3114	0.0404819
3126	0.0281462
3138	0.0173742
3150	0.0158974
3162	0.0156368
3174	0.0132913
3186	0.0125094
3198	0.0132913
3210	0.0110326
3222	0.00972955
3234	0.00851336
3246	0.00816587
3258	0.00842649
3270	0.00972955
3282	0.00972955
3294	0.0116407
3306	0.010772
3318	0.00955581
3330	0.0105983
3342	0.0138125
3354	0.0132044
3366	0.0117276
3378	0.00677594
3390	0.00677594
3402	0.00764465
3414	0.00877397
3426	0.0092952
3438	0.00799213
3450	0.00503852
3462	0.00451729
3474	0.00199803
3486	0.00312736
3498	0.00608097
3510	0.00555974
3522	0.00277987
3534	0.000521226
3546	0.000434355
3558	0.00347484
3570	0.00364858
3582	0.00469103
3594	0.00521226
3606	0.00304048
3618	0.0112064
3630	0.0703655
3642	0.335583
3654	0.269995
3666	0.11328
3678	0.120056
3690	0.0512539
3702	0.0156368
3714	0.00773152
3726	0.00390919
3738	0.00147681
3750	0
3762	8.6871e-05
3774	0.00234552
3786	0.00156368
3798	0.00460416
3810	0.00243239
3822	0.000173742
3834	0.000608097
3846	0.00156368
3858	0.0033011
3870	0.00729716
3882	0.00703655
3894	0.00738404
3906	0.00781839
3918	0.00382232
3930	0.00729716
3942	0.00816587
3954	0.00634158
3966	0.00347484
