Infrared Spectrum: Benzenamine, 2-(trifluoromethyl)-
Formula: C 7 H 6 F 3 N
CAS: 88-17-5
Origin: Sadtler Research Labs Under US-EPA Contract
1/CM	ABSORBANCE
450	0.0504279
462	0.0640816
474	0.0344074
486	0.0131076
498	0.0087384
510	0.0198435
522	0.0342254
534	0.0233024
546	0.0189332
558	0.0100128
570	0.0032769
582	0.0151102
594	0.0180229
606	0.0183871
618	0.0227563
630	0.0276716
642	0.0686329
654	0.164209
666	0.0930276
678	0.0833789
690	0.0724559
702	0.0602586
714	0.054433
726	0.0702713
738	0.203896
750	0.414164
762	0.191153
774	0.0566176
786	0.0407792
798	0.0347715
810	0.0285819
822	0.0223921
834	0.0196614
846	0.0100128
858	0.00673585
870	0.00673585
882	0.00236665
894	0.0007282
906	0.00018205
918	0.0010923
930	0.0091025
942	0.0296741
954	0.0138358
966	0.00382305
978	0.0014564
990	0.0018205
1002	0.0029128
1014	0.0365921
1026	0.164937
1038	0.13144
1050	0.15183
1062	0.310213
1074	0.296195
1086	0.244311
1098	0.146732
1110	0.243219
1122	0.892045
1134	1.8205
1146	0.410159
1158	0.156381
1170	0.269798
1182	0.329693
1194	0.129984
1206	0.0418715
1218	0.0293101
1230	0.0253049
1242	0.0373202
1254	0.0773713
1266	0.140543
1278	0.148189
1290	0.378846
1302	0.770982
1314	0.468415
1326	0.967778
1338	0.595668
1350	0.0890225
1362	0.0253049
1374	0.0156563
1386	0.0118333
1398	0.0127435
1410	0.010923
1422	0.010923
1434	0.0223921
1446	0.0415074
1458	0.206081
1470	0.328782
1482	0.122884
1494	0.171855
1506	0.238486
1518	0.0972147
1530	0.0227563
1542	0.0225742
1554	0.018205
1566	0.0340433
1578	0.0877481
1590	0.150737
1602	0.143273
1614	0.229019
1626	0.365556
1638	0.44493
1650	0.233934
1662	0.0629893
1674	0.0293101
1686	0.0233024
1698	0.0187512
1710	0.011105
1722	0.011105
1734	0.0114692
1746	0.00673585
1758	0.00491535
1770	0.00637175
1782	0.0103768
1794	0.0103768
1806	0.0032769
1818	0.00418715
1830	0.0032769
1842	0.0010923
1854	0.0003641
1866	0.0021846
1878	0.00637175
1890	0.00527945
1902	0.00746405
1914	0.0103768
1926	0.0050974
1938	0.00782815
1950	0.00382305
1962	0.00091025
1974	0.0007282
1986	0.0007282
1998	0.00127435
2010	0.0018205
2022	0.00418715
2034	0.00527945
2046	0.007282
2058	0.00782815
2070	0.0083743
2082	0.0080102
2094	0.0032769
2106	0.0029128
2118	0.0029128
2130	0.00127435
2142	0.0018205
2154	0.00236665
2166	0.0025487
2178	0.00345895
2190	0.00455125
2202	0.0047333
2214	0.0054615
2226	0.00527945
2238	0.00600765
2250	0.00600765
2262	0.00491535
2274	0.003641
2286	0.0040051
2298	0.0032769
2310	0.00163845
2322	0.00018205
2334	0.0003641
2346	0.00455125
2358	0.00018205
2370	0.0091025
2382	0.0065538
2394	0.00527945
2406	0.00491535
2418	0.0047333
2430	0.00600765
2442	0.00564355
2454	0.00564355
2466	0.0069179
2478	0.00709995
2490	0.0061897
2502	0.00637175
2514	0.0054615
2526	0.0069179
2538	0.00673585
2550	0.00782815
2562	0.0076461
2574	0.00892045
2586	0.00892045
2598	0.00782815
2610	0.0054615
2622	0.003641
2634	0.00527945
2646	0.0043692
2658	0.0040051
2670	0.0065538
2682	0.0083743
2694	0.0091025
2706	0.0087384
2718	0.00855635
2730	0.00928455
2742	0.00892045
2754	0.00892045
2766	0.00892045
2778	0.0105589
2790	0.010741
2802	0.011105
2814	0.0094666
2826	0.0091025
2838	0.0094666
2850	0.0098307
2862	0.0083743
2874	0.00855635
2886	0.0098307
2898	0.0098307
2910	0.0103768
2922	0.010741
2934	0.0129256
2946	0.0138358
2958	0.0118333
2970	0.0105589
2982	0.0103768
2994	0.010741
3006	0.0112871
3018	0.0165665
3030	0.0316767
3042	0.0609867
3054	0.0684508
3066	0.0524304
3078	0.0438741
3090	0.0500638
3102	0.0429638
3114	0.0187512
3126	0.0103768
3138	0.0103768
3150	0.00600765
3162	0.0054615
3174	0.0029128
3186	0.0050974
3198	0.00637175
3210	0.0065538
3222	0.0087384
3234	0.0087384
3246	0.0091025
3258	0.00600765
3270	0.00527945
3282	0.00345895
3294	0.0032769
3306	0.0040051
3318	0.003641
3330	0.0054615
3342	0.00018205
3354	0.00018205
3366	0.0003641
3378	0.0021846
3390	0.0050974
3402	0.0091025
3414	0.0167486
3426	0.0433279
3438	0.098307
3450	0.0957583
3462	0.0373202
3474	0.0152922
3486	0.0132897
3498	0.014564
3510	0.0280357
3522	0.0637175
3534	0.0995813
3546	0.0824687
3558	0.0336793
3570	0.014382
3582	0.011105
3594	0.0069179
3606	0.0069179
3618	0.0021846
3630	0.003641
3642	0.0054615
3654	0.0103768
3666	0.00782815
3678	0.00892045
3690	0.0105589
3702	0.0094666
3714	0.0123794
3726	0.0138358
3738	0.0141999
3750	0.010741
3762	0.011105
3774	0.0103768
3786	0.0125615
3798	0.0132897
3810	0.0163845
3822	0.0183871
3834	0.0105589
3846	0.0162025
3858	0.0191153
3870	0.0209357
3882	0.0231204
3894	0.0202076
3906	0.0194793
3918	0.0136538
3930	0.00892045
3942	0.021664
3954	0.0114692
3966	0.0141999
