Infrared Spectrum: Ethanone, 1-(2-thienyl)-
Formula: C 6 H 6 O S
CAS: 88-15-3
Origin: Sadtler Research Labs Under US-EPA Contract
1/CM	ABSORBANCE
450	0
462	0.0222551
474	0.0084632
486	0.0128515
498	0.0137919
510	0.00971701
522	0.0153591
534	0.0137919
546	0.0241358
558	0.0501523
570	0.215968
582	0.481149
594	0.4567
606	0.230387
618	0.110335
630	0.0548541
642	0.0275838
654	0.0288376
666	0.078363
678	0.108141
690	0.144501
702	0.621262
714	1.68073
726	0.799616
738	0.184937
750	0.0608097
762	0.0639442
774	0.0347932
786	0.0272703
798	0.022882
810	0.0244493
822	0.0708402
834	0.19246
846	0.278972
858	0.36047
870	0.273017
882	0.0410622
894	0.0313452
906	0.0473313
918	0.156413
930	0.263613
942	0.171772
954	0.180235
966	0.185564
978	0.0777361
990	0.0592424
1002	0.0836917
1014	0.110022
1026	0.170204
1038	0.199042
1050	0.265494
1062	0.285868
1074	0.147322
1086	0.10626
1098	0.0736612
1110	0.032599
1122	0.0288376
1134	0.0203744
1146	0.0169264
1158	0.0219416
1170	0.0454505
1182	0.0730343
1194	0.126008
1206	0.178041
1218	0.170204
1230	0.292764
1242	1.0742
1254	2.02145
1266	2.14558
1278	1.04442
1290	0.08808
1302	0.0363604
1314	0.0404353
1326	0.0548541
1338	0.155786
1350	0.506225
1362	0.880173
1374	0.725955
1386	0.351066
1398	0.299347
1410	1.05069
1422	1.35474
1434	0.565781
1446	0.188698
1458	0.0965432
1470	0.0586155
1482	0.0526599
1494	0.0827513
1506	0.309377
1518	0.665772
1530	0.481149
1542	0.178041
1554	0.142934
1566	0.0811841
1578	0.0517196
1590	0.0454505
1602	0.0576752
1614	0.0830648
1626	0.102812
1638	0.0883935
1650	0.123814
1662	0.177727
1674	0.652921
1686	2.19479
1698	3.13452
1710	1.60864
1722	0.295585
1734	0.11347
1746	0.0677056
1758	0.0730343
1770	0.0742881
1782	0.0441967
1794	0.0485851
1806	0.0448236
1818	0.0313452
1830	0.0319721
1842	0.0282107
1854	0.0319721
1866	0.0401219
1878	0.0272703
1890	0.0150457
1902	0.0106574
1914	0.0122246
1926	0.0137919
1938	0.0213147
1950	0.0181802
1962	0.00814975
1974	0.0084632
1986	0.00626904
1998	0.00532868
2010	0.00814975
2022	0.00814975
2034	0.00909011
2046	0.0106574
2058	0.00626904
2070	0.00689594
2082	0.0100305
2094	0.0122246
2106	0.0122246
2118	0.0084632
2130	0.00376142
2142	0.00626904
2154	0.00626904
2166	0.0100305
2178	0.0128515
2190	0.00752285
2202	0.00626904
2214	0.00626904
2226	0.00438833
2238	0.00313452
2250	0.00532868
2262	0.00626904
2274	0.0112843
2286	0.0134784
2298	0.0084632
2310	0.00532868
2322	0.00438833
2334	0.00313452
2346	0.00313452
2358	0.00595559
2370	0.00313452
2382	0.00689594
2394	0.0084632
2406	0.00971701
2418	0.0137919
2430	0.0137919
2442	0.0150457
2454	0.016613
2466	0.0115977
2478	0.0084632
2490	0.00689594
2502	0.00595559
2514	0.00626904
2526	0.00626904
2538	0.00595559
2550	0.00689594
2562	0.0084632
2574	0.00814975
2586	0.00909011
2598	0.0115977
2610	0.0137919
2622	0.0181802
2634	0.0137919
2646	0.0084632
2658	0.00971701
2670	0.0106574
2682	0.0137919
2694	0.0115977
2706	0.00814975
2718	0.0084632
2730	0.00909011
2742	0.0084632
2754	0.0100305
2766	0.0134784
2778	0.0150457
2790	0.0150457
2802	0.0122246
2814	0.0153591
2826	0.0213147
2838	0.0213147
2850	0.0169264
2862	0.0175533
2874	0.016613
2886	0.0169264
2898	0.0206878
2910	0.0257031
2922	0.0420026
2934	0.06175
2946	0.0598693
2958	0.049212
2970	0.0608097
2982	0.0623769
2994	0.0523465
3006	0.0774226
3018	0.110022
3030	0.0774226
3042	0.0454505
3054	0.0385546
3066	0.0441967
3078	0.0959163
3090	0.138546
3102	0.0974836
3114	0.0677056
3126	0.0404353
3138	0.016613
3150	0.0106574
3162	0.0106574
3174	0.0084632
3186	0.0084632
3198	0.00909011
3210	0.00814975
3222	0.00814975
3234	0.00752285
3246	0.00689594
3258	0.00752285
3270	0.00909011
3282	0.00752285
3294	0.0084632
3306	0.00909011
3318	0.00689594
3330	0.00909011
3342	0.0150457
3354	0.032599
3366	0.0561079
3378	0.049212
3390	0.0304048
3402	0.0137919
3414	0.00438833
3426	0.00595559
3438	0.00689594
3450	0.00595559
3462	0.00689594
3474	0.00689594
3486	0.00595559
3498	0.00595559
3510	0.00689594
3522	0.00689594
3534	0.00626904
3546	0.00595559
3558	0.00595559
3570	0.00689594
3582	0.00752285
3594	0.00595559
3606	0.00438833
3618	0.00626904
3630	0.00971701
3642	0.00532868
3654	0.00313452
3666	0.00752285
3678	0.00971701
3690	0.00532868
3702	0.00752285
3714	0.00814975
3726	0.00689594
3738	0.00595559
3750	0.0115977
3762	0.00689594
3774	0.0100305
3786	0.00909011
3798	0.00814975
3810	0.0115977
3822	0.0112843
3834	0.0150457
3846	0.0181802
3858	0.0122246
3870	0.0084632
3882	0.0100305
3894	0.00376142
3906	0.00689594
3918	0.00909011
3930	0.00689594
3942	0.0181802
3954	0.0175533
3966	0.0153591
