Infrared Spectrum: 3,5-di-tert-Butyl-4-hydroxybenzyl alcohol
Formula: C 15 H 24 O 2
CAS: 88-26-6
Origin: Sadtler Research Labs Under US-EPA Contract
1/CM	ABSORBANCE
450	0.0305759
462	0.00435725
474	0.0325291
486	0.0119449
498	0.0290734
510	0.039666
522	0.0195325
534	0.0123205
546	0.00856425
558	0.0101419
570	0.0126961
582	0.004207
594	0.006611
606	0.00886475
618	0.0187061
630	0.013823
642	0.0108931
654	0.01803
666	0.00818862
678	0.0116444
690	0.0152504
702	0.00698662
714	0.0105926
726	0.00818862
738	0.0181051
750	0.0119449
762	0.0202837
774	0.0283972
786	0.02404
798	0.0267445
810	0.047479
822	0.0421451
834	0.0219365
846	0.01803
858	0.0296744
870	0.0833136
882	0.112612
894	0.045075
906	0.0520616
918	0.0999162
930	0.0671617
942	0.0422203
954	0.0199081
966	0.0226877
978	0.0244907
990	0.0344073
1002	0.0510099
1014	0.0795574
1026	0.100442
1038	0.0692653
1050	0.049282
1062	0.0461268
1074	0.0512352
1086	0.0636309
1098	0.0522119
1110	0.0496576
1122	0.0703921
1134	0.0464272
1146	0.0736225
1158	0.143864
1170	0.156861
1182	0.119824
1194	0.134098
1206	0.139732
1218	0.126886
1230	0.168355
1242	0.186009
1254	0.206669
1266	0.105551
1278	0.0534139
1290	0.0526626
1302	0.0856425
1314	0.0951082
1326	0.051085
1338	0.040868
1350	0.0575457
1362	0.169482
1374	0.183606
1386	0.12606
1398	0.147921
1410	0.0832385
1422	0.114791
1434	0.196903
1446	0.151527
1458	0.11111
1470	0.114641
1482	0.118773
1494	0.0701667
1506	0.0251669
1518	0.0177295
1530	0.0154757
1542	0.00766275
1554	0.00946575
1566	0.0166026
1578	0.0295241
1590	0.0442486
1602	0.0377127
1614	0.059499
1626	0.0972869
1638	0.202236
1650	0.212453
1662	0.0674623
1674	0.0310266
1686	0.0166026
1698	0.0166026
1710	0.0615274
1722	0.0205091
1734	0.00788812
1746	0.0125459
1758	0.0123205
1770	0.0151001
1782	0.0200584
1794	0.0144991
1806	0.0144991
1818	0.00939062
1830	0.0129966
1842	0.00638562
1854	0.00315525
1866	0.00277962
1878	0.00255425
1890	0.001803
1902	0.00292987
1914	0.00142737
1926	0.002404
1938	0.00217863
1950	0.00105175
1962	0.0015025
1974	0.0021035
1986	0.00225375
1998	0.0021035
2010	0.00202837
2022	0.00187813
2034	0.00187813
2046	0.00165275
2058	0.00105175
2070	0.00112687
2082	0.00135225
2094	0.000976625
2106	0.001202
2118	0.00142737
2130	0.00135225
2142	0.000826375
2154	0.000525875
2166	0.000976625
2178	0.00112687
2190	0.00112687
2202	0.000976625
2214	0.00135225
2226	0.0015025
2238	0.00195325
2250	0.00165275
2262	0.00232887
2274	0.003005
2286	0.00653588
2298	0.011419
2310	0.0154757
2322	0.0107429
2334	0.00638562
2346	0.0107429
2358	0.00878962
2370	0.00668612
2382	0.00886475
2394	0.00315525
2406	0.00255425
2418	0.00262937
2430	0.00195325
2442	0.00217863
2454	0.002404
2466	0.00255425
2478	0.00255425
2490	0.0021035
2502	0.00247912
2514	0.00277962
2526	0.00255425
2538	0.00202837
2550	0.00315525
2562	0.00413188
2574	0.00323037
2586	0.00292987
2598	0.003005
2610	0.00308012
2622	0.00338062
2634	0.00368112
2646	0.00443237
2658	0.005409
2670	0.00533388
2682	0.00518362
2694	0.00676125
2706	0.0125459
2718	0.0184056
2730	0.0121702
2742	0.0107429
2754	0.0125459
2766	0.0127712
2778	0.0161519
2790	0.0203589
2802	0.0199832
2814	0.0244156
2826	0.0295992
2838	0.03606
2850	0.0550666
2862	0.101494
2874	0.210951
2886	0.262637
2898	0.231084
2910	0.260533
2922	0.323037
2934	0.310191
2946	0.355867
2958	0.603704
2970	0.75125
2982	0.331677
2994	0.110509
3006	0.118247
3018	0.0736976
3030	0.0329799
3042	0.027045
3054	0.0350082
3066	0.0314774
3078	0.0273455
3090	0.027045
3102	0.0253922
3114	0.009015
3126	0.00833887
3138	0.00758762
3150	0.00833887
3162	0.00788812
3174	0.0063105
3186	0.0063105
3198	0.00548412
3210	0.00458262
3222	0.00428212
3234	0.00488312
3246	0.00585975
3258	0.00653588
3270	0.00713687
3282	0.00495825
3294	0.003606
3306	0.00315525
3318	0.00285475
3330	0.00285475
3342	0.001803
3354	0.0027045
3366	0.0033055
3378	0.00338062
3390	0.00465775
3402	0.00443237
3414	0.00443237
3426	0.00338062
3438	0.003606
3450	0.00368112
3462	0.00165275
3474	0.00398162
3486	0.00172787
3498	0.003005
3510	0.00368112
3522	0.0033055
3534	0.003005
3546	0.00375625
3558	0.00375625
3570	0.00503337
3582	0.00653588
3594	0.00277962
3606	0.00766275
3618	0.0152504
3630	0.021035
3642	0.0587477
3654	0.118322
3666	0.19217
3678	0.099165
3690	0.0238897
3702	0.0109682
3714	0.00285475
3726	0.0063105
3738	0.0027045
3750	0
3762	0.00247912
3774	0.0009015
3786	0.000525875
3798	0.000525875
3810	0.004808
3822	0.000601
3834	0.00142737
3846	0.000676125
3858	0.0027045
3870	0.00713687
3882	0.00075125
3894	0.00443237
3906	0.00353087
3918	0.00285475
3930	0.00398162
3942	0.00172787
3954	0
3966	0.000676125
