Infrared Spectrum: 4-Nitro-3-(trifluoromethyl)phenol
Formula: C 7 H 4 F 3 N O 3
CAS: 88-30-2
Origin: Sadtler Research Labs Under US-EPA Contract
1/CM	ABSORBANCE
450	0.0142008
462	0.00864025
474	0.00641602
486	0.00487618
498	0.0056461
510	0.0111211
522	0.017366
534	0.0146285
546	0.0205313
558	0.0248086
570	0.028145
582	0.0334489
594	0.0263485
606	0.0148852
618	0.019077
630	0.0442278
642	0.0692075
654	0.0289149
666	0.0337911
678	0.0151418
690	0.0179649
702	0.0158262
714	0.0220711
726	0.0147996
738	0.0186492
750	0.0621071
762	0.0401215
774	0.0186492
786	0.0150563
798	0.0118055
810	0.0219856
822	0.047393
834	0.0884556
846	0.0497884
858	0.0296848
870	0.0506438
882	0.0421747
894	0.0485907
906	0.0742548
918	0.136875
930	0.0399504
942	0.0242953
954	0.0222422
966	0.0177938
978	0.0153985
990	0.0134309
1002	0.0141153
1014	0.0161684
1026	0.0249797
1038	0.101117
1050	0.121391
1062	0.0244664
1074	0.0242953
1086	0.0287438
1098	0.0374696
1110	0.0513282
1122	0.094615
1134	0.163737
1146	0.225502
1158	0.29642
1170	0.661364
1182	0.833484
1194	0.485308
1206	0.201976
1218	0.110612
1230	0.0969248
1242	0.215835
1254	0.191454
1266	0.18692
1278	0.141067
1290	0.0809275
1302	0.159716
1314	0.423971
1326	0.425083
1338	0.245178
1350	0.281792
1362	0.330383
1374	0.0770778
1386	0.0471364
1398	0.0414047
1410	0.0426024
1422	0.0694642
1434	0.152872
1446	0.124984
1458	0.0508149
1470	0.0396938
1482	0.0714317
1494	0.0915353
1506	0.0686087
1518	0.0673255
1530	0.0994056
1542	0.206083
1554	0.391805
1566	0.265966
1578	0.15792
1590	0.133111
1602	0.16023
1614	0.119253
1626	0.0518415
1638	0.0232688
1650	0.0140297
1662	0.0102656
1674	0.0102656
1686	0.0127465
1698	0.0112922
1710	0.00941017
1722	0.00915353
1734	0.011891
1746	0.00906798
1758	0.0101801
1770	0.011891
1782	0.01095
1794	0.00941017
1806	0.0072715
1818	0.00624493
1830	0.00624493
1842	0.00487618
1854	0.00402071
1866	0.00410626
1878	0.00556056
1890	0.0056461
1902	0.00607384
1914	0.0056461
1926	0.00461954
1938	0.00384961
1950	0.00393516
1962	0.00333633
1974	0.0029086
1986	0.00256641
1998	0.00256641
2010	0.00213868
2022	0.00213868
2034	0.00162539
2046	0.00179649
2058	0.00171094
2070	0.00239532
2082	0.00299415
2094	0.00230977
2106	0.00111211
2118	0.00102656
2130	0.00111211
2142	0.00119766
2154	0.00213868
2166	0.00265196
2178	0.0012832
2190	0.0012832
2202	0.00153985
2214	0.00162539
2226	0.00119766
2238	0.0014543
2250	0.00119766
2262	0.00102656
2274	0.0014543
2286	0.00205313
2298	0.00282305
2310	0.00248086
2322	0.0012832
2334	0.000342188
2346	0.000941017
2358	8.5547e-05
2370	0.000684376
2382	0.00384961
2394	0.00265196
2406	0.00282305
2418	0.00307969
2430	0.00307969
2442	0.00248086
2454	0.00196758
2466	0.00222422
2478	0.00222422
2490	0.00316524
2502	0.00325079
2514	0.0027375
2526	0.00196758
2538	0.00171094
2550	0.00162539
2562	0.00196758
2574	0.00171094
2586	0.00188203
2598	0.00153985
2610	0.00171094
2622	0.00188203
2634	0.00350743
2646	0.00325079
2658	0.00230977
2670	0.00213868
2682	0.00222422
2694	0.0029086
2706	0.00333633
2718	0.00213868
2730	0.0014543
2742	0.00205313
2754	0.00222422
2766	0.00282305
2778	0.00222422
2790	0.00179649
2802	0.00162539
2814	0.0014543
2826	0.00162539
2838	0.00188203
2850	0.00265196
2862	0.00316524
2874	0.0041918
2886	0.00496173
2898	0.00718595
2910	0.00667267
2922	0.00556056
2934	0.00402071
2946	0.0027375
2958	0.00188203
2970	0.00256641
2982	0.00153985
2994	0.0012832
3006	0.000941017
3018	0.00162539
3030	0.0041918
3042	0.00479063
3054	0.00701485
3066	0.00915353
3078	0.00667267
3090	0.00641602
3102	0.0041918
3114	0.00222422
3126	0.00179649
3138	0.00153985
3150	0.00085547
3162	0.000769923
3174	0.00136875
3186	0.00171094
3198	0.00102656
3210	0.00085547
3222	0.00153985
3234	0.00111211
3246	0.00205313
3258	0.00102656
3270	0.00111211
3282	0.0012832
3294	0.00111211
3306	0.00153985
3318	0.00222422
3330	0.00282305
3342	0.00239532
3354	0.00265196
3366	0.0012832
3378	0.0014543
3390	0.00162539
3402	0.00171094
3414	0.00136875
3426	0.0014543
3438	0.000598829
3450	0.000769923
3462	0.000941017
3474	0.0012832
3486	0.0012832
3498	0.00153985
3510	0.00119766
3522	0.00102656
3534	0.000941017
3546	0.00111211
3558	0.00119766
3570	0.00205313
3582	0.00222422
3594	0.00111211
3606	0.00239532
3618	0.0043629
3630	0.0269473
3642	0.1462
3654	0.150905
3666	0.014543
3678	0.00333633
3690	0.00265196
3702	0.0014543
3714	0.00153985
3726	0.00205313
3738	0.00402071
3750	0.00444844
3762	0.00162539
3774	0.00222422
3786	0.00239532
3798	0.00230977
3810	0.00316524
3822	0.00384961
3834	0.0043629
3846	0.00427735
3858	0.00299415
3870	0.00350743
3882	0.00307969
3894	0.00453399
3906	0.00402071
3918	0.00196758
3930	0.00265196
3942	0.00171094
3954	0.0014543
3966	0.00162539
