Infrared Spectrum: Benzoic acid, 2-bromo-
Formula: C 7 H 5 Br O 2
CAS: 88-65-3
Origin: Sadtler Research Labs Under US-EPA Contract
1/CM	ABSORBANCE
450	0
462	0.00720591
474	0.00856647
486	0.010179
498	0.0132024
510	0.0155708
522	0.0309905
534	0.0521043
546	0.0568914
558	0.0670704
570	0.0780053
582	0.0636942
594	0.0473171
606	0.0328045
618	0.0753345
630	0.122198
642	0.0297307
654	0.0398593
666	0.0805248
678	0.0365839
690	0.0306377
702	0.0309905
714	0.0184431
726	0.0500887
738	0.187807
750	0.145328
762	0.0630391
774	0.0579496
786	0.025901
798	0.0153189
810	0.0116403
822	0.0103302
834	0.00604692
846	0.00569418
858	0.00680278
870	0.00851608
882	0.00745787
894	0.0078106
906	0.00508949
918	0.00584536
930	0.00549262
942	0.00705474
954	0.0104813
966	0.00735709
978	0.00796178
990	0.00846569
1002	0.0147646
1014	0.0423788
1026	0.162158
1038	0.173748
1050	0.0530617
1062	0.0455535
1074	0.0870756
1086	0.184129
1098	0.226407
1110	0.180299
1122	0.108441
1134	0.105317
1146	0.0616282
1158	0.0855639
1170	0.144622
1182	0.211793
1194	0.178082
1206	0.0740244
1218	0.0483754
1230	0.036987
1242	0.03608
1254	0.0478211
1266	0.0556821
1278	0.0604692
1290	0.0646013
1302	0.0800713
1314	0.10698
1326	0.107484
1338	0.106627
1350	0.0832459
1362	0.058504
1374	0.0546742
1386	0.0318471
1398	0.0186951
1410	0.0196021
1422	0.0403128
1434	0.0782572
1446	0.0536664
1458	0.0285717
1470	0.0612755
1482	0.0393554
1494	0.0125474
1506	0.0073067
1518	0.00685318
1530	0.00791139
1542	0.00700435
1554	0.0138575
1566	0.0283701
1578	0.0374405
1590	0.0633415
1602	0.0428827
1614	0.0151173
1626	0.00962468
1638	0.00776021
1650	0.00750826
1662	0.00836491
1674	0.00932233
1686	0.0114388
1698	0.0173345
1710	0.0283197
1722	0.055934
1734	0.105519
1746	0.182819
1758	0.361908
1770	0.50391
1782	0.325324
1794	0.152937
1806	0.0764431
1818	0.0339131
1830	0.0160747
1842	0.0111868
1854	0.00957429
1866	0.00750826
1878	0.00660122
1890	0.00604692
1902	0.00655083
1914	0.00655083
1926	0.0102798
1938	0.00942312
1950	0.0084153
1962	0.00917116
1974	0.0055934
1986	0.00408167
1998	0.0039305
2010	0.00372893
2022	0.00372893
2034	0.00372893
2046	0.00372893
2058	0.00372893
2070	0.00372893
2082	0.00377933
2094	0.00413206
2106	0.00423284
2118	0.00463597
2130	0.00418245
2142	0.00423284
2154	0.00418245
2166	0.00463597
2178	0.00513988
2190	0.00463597
2202	0.00468636
2214	0.00519027
2226	0.00418245
2238	0.00408167
2250	0.00413206
2262	0.00403128
2274	0.00463597
2286	0.0050391
2298	0.00554301
2310	0.00569418
2322	0.00529106
2334	0.00423284
2346	0.0050391
2358	0.00549262
2370	0.0061477
2382	0.00584536
2394	0.00498871
2406	0.0044848
2418	0.00453519
2430	0.00524066
2442	0.00458558
2454	0.00488793
2466	0.00488793
2478	0.00463597
2490	0.0044848
2502	0.00483754
2514	0.00488793
2526	0.00483754
2538	0.00519027
2550	0.00493832
2562	0.00483754
2574	0.00483754
2586	0.00483754
2598	0.00458558
2610	0.00438402
2622	0.00483754
2634	0.00473675
2646	0.00433363
2658	0.00468636
2670	0.00423284
2682	0.00423284
2694	0.00428323
2706	0.00423284
2718	0.00377933
2730	0.00423284
2742	0.00423284
2754	0.00418245
2766	0.00483754
2778	0.00423284
2790	0.00468636
2802	0.00483754
2814	0.00443441
2826	0.00473675
2838	0.00524066
2850	0.00574457
2862	0.00624848
2874	0.00594614
2886	0.00539184
2898	0.00579497
2910	0.0061477
2922	0.00675239
2934	0.00826412
2946	0.0078106
2958	0.00690357
2970	0.00675239
2982	0.00735709
2994	0.00735709
3006	0.00735709
3018	0.00770982
3030	0.0078106
3042	0.00836491
3054	0.0123458
3066	0.0281182
3078	0.0403128
3090	0.0274631
3102	0.0109852
3114	0.0084153
3126	0.0078106
3138	0.00886882
3150	0.006702
3162	0.00498871
3174	0.00534145
3186	0.00549262
3198	0.00544223
3210	0.00508949
3222	0.00493832
3234	0.00513988
3246	0.00493832
3258	0.00468636
3270	0.00453519
3282	0.00453519
3294	0.00544223
3306	0.00579497
3318	0.0050391
3330	0.00458558
3342	0.00483754
3354	0.00493832
3366	0.00529106
3378	0.00508949
3390	0.00574457
3402	0.00458558
3414	0.00519027
3426	0.00463597
3438	0.00463597
3450	0.00508949
3462	0.00639966
3474	0.0072563
3486	0.00957429
3498	0.0105821
3510	0.0114388
3522	0.013656
3534	0.0149661
3546	0.0170322
3558	0.0522051
3570	0.188865
3582	0.152584
3594	0.0372389
3606	0.0109852
3618	0.00770982
3630	0.00508949
3642	0.00574457
3654	0.00513988
3666	0.00428323
3678	0.0039305
3690	0.00382972
3702	0.00473675
3714	0.00524066
3726	0.00478714
3738	0.00564379
3750	0.00428323
3762	0.00473675
3774	0.00473675
3786	0.0044848
3798	0.00473675
3810	0.00519027
3822	0.00529106
3834	0.0061477
3846	0.00599653
3858	0.00524066
3870	0.00478714
3882	0.00443441
3894	0.00554301
3906	0.00539184
3918	0.00433363
3930	0.00534145
3942	0.00529106
3954	0.00352737
3966	0.00372893
