Infrared Spectrum: Benzoic acid, 2-iodo-
Formula: C 7 H 5 I O 2
CAS: 88-67-5
Origin: Sadtler Research Labs Under US-EPA Contract
1/CM	ABSORBANCE
450	0.0021297
462	0.0045256
474	0.00798636
486	0.0122458
498	0.020698
510	0.0137765
522	0.0302816
534	0.0497816
546	0.0565035
558	0.0575683
570	0.0928414
582	0.0718772
594	0.0523107
606	0.0367373
618	0.068483
630	0.120461
642	0.0449233
654	0.092908
666	0.029483
678	0.0234267
690	0.0304147
702	0.0247577
714	0.0177031
726	0.0783329
738	0.262618
750	0.131442
762	0.0717441
774	0.0581008
786	0.0226946
798	0.00752049
810	0.0076536
822	0.0077867
834	0.00692151
846	0.00918431
858	0.0105154
870	0.0107816
882	0.0032611
894	0.00472526
906	0.00352731
918	0.00286178
930	0.00319454
942	0.00399318
954	0.00645564
966	0.00425939
978	0.0043925
990	0.00858534
1002	0.0272202
1014	0.147149
1026	0.132041
1038	0.092309
1050	0.0503806
1062	0.0586997
1074	0.154403
1086	0.250173
1098	0.203319
1110	0.148147
1122	0.126517
1134	0.121792
1146	0.0674847
1158	0.105353
1170	0.154935
1182	0.266212
1194	0.201855
1206	0.07414
1218	0.050181
1230	0.0460547
1242	0.0628926
1254	0.0687492
1266	0.0650888
1278	0.0624933
1290	0.0652885
1302	0.0875172
1314	0.10369
1326	0.0975667
1338	0.119063
1350	0.08978
1362	0.0674847
1374	0.0606298
1386	0.0292833
1398	0.0210307
1410	0.0211639
1422	0.0455888
1434	0.07414
1446	0.0340086
1458	0.0366707
1470	0.0553721
1482	0.0217628
1494	0.0133106
1506	0.023227
1518	0.0185017
1530	0.00918431
1542	0.0163055
1554	0.0186348
1566	0.0375359
1578	0.0523107
1590	0.0686827
1602	0.0385342
1614	0.0247577
1626	0.0125785
1638	0.0123789
1650	0.00984984
1662	0.00898465
1674	0.0115802
1686	0.0201656
1698	0.0258226
1710	0.0321451
1722	0.0628926
1734	0.126584
1746	0.208843
1758	0.447769
1770	0.620008
1782	0.240057
1794	0.151208
1806	0.0600974
1818	0.0258226
1830	0.0139096
1842	0.00958363
1854	0.00718772
1866	0.00472526
1878	0.00379352
1890	0.00425939
1902	0.00479182
1914	0.00525769
1926	0.00911776
1938	0.00758704
1950	0.00618943
1962	0.0077867
1974	0.00272867
1986	0.00146417
1998	0.00106485
2010	0.00146417
2022	0.000798636
2034	0.00166382
2046	0.000865189
2058	0.000931742
2070	0.000465871
2082	0.00139761
2094	0.00139761
2106	0.00106485
2118	0.00126451
2130	0.00133106
2142	0.00186348
2154	0.00239591
2166	0.0022628
2178	0.00139761
2190	0.00179693
2202	0.00193004
2214	0.0022628
2226	0.00133106
2238	0.00126451
2250	0.00179693
2262	0.00199659
2274	0.00279523
2286	0.00312799
2298	0.00419284
2310	0.00798636
2322	0.0089181
2334	0.0101826
2346	0.0110478
2358	0.0148413
2370	0.0110478
2382	0.00525769
2394	0.00219625
2406	0.00166382
2418	0.0022628
2430	0.00186348
2442	0.0022628
2454	0.00206314
2466	0.00219625
2478	0.0022628
2490	0.00166382
2502	0.00199659
2514	0.00199659
2526	0.00239591
2538	0.00246246
2550	0.00252901
2562	0.00246246
2574	0.0021297
2586	0.00252901
2598	0.00193004
2610	0.00239591
2622	0.00193004
2634	0.000931742
2646	0.00166382
2658	0.00186348
2670	0.000931742
2682	0.000865189
2694	0.00133106
2706	0.00066553
2718	0.000465871
2730	0.000865189
2742	0.00186348
2754	0.00159727
2766	0.00252901
2778	0.00146417
2790	0.00186348
2802	0.00206314
2814	0.00252901
2826	0.00193004
2838	0.00299489
2850	0.00319454
2862	0.00386007
2874	0.0032611
2886	0.00272867
2898	0.00312799
2910	0.00386007
2922	0.00472526
2934	0.00712117
2946	0.00605632
2958	0.00492492
2970	0.00525769
2982	0.00572356
2994	0.00519113
3006	0.00572356
3018	0.00545735
3030	0.0066553
3042	0.00718772
3054	0.0155734
3066	0.03514
3078	0.0454557
3090	0.0222953
3102	0.00945053
3114	0.00678841
3126	0.00712117
3138	0.00678841
3150	0.0033942
3162	0.00199659
3174	0.00346076
3186	0.00372697
3198	0.0022628
3210	0.00232935
3222	0.00153072
3234	0.00359386
3246	0.00252901
3258	0.00159727
3270	0.00166382
3282	0.00206314
3294	0.00232935
3306	0.0021297
3318	0.00272867
3330	0.00173038
3342	0.00193004
3354	0.00266212
3366	0.00286178
3378	0.00386007
3390	0.00193004
3402	0.00312799
3414	0.00119795
3426	0.00259557
3438	0.00352731
3450	0.00306144
3462	0.00246246
3474	0.00445905
3486	0.00545735
3498	0.00678841
3510	0.00725428
3522	0.00871844
3534	0.00905121
3546	0.0124454
3558	0.0537748
3570	0.20272
3582	0.185417
3594	0.0575683
3606	0.0103157
3618	0.00685496
3630	0.00871844
3642	0.00479182
3654	0.00559045
3666	0.00286178
3678	0.00592322
3690	0.00512458
3702	0.0032611
3714	0.00658875
3726	0.00698806
3738	0.00798636
3750	0.00798636
3762	0.00279523
3774	0.00332765
3786	0.0021297
3798	0.0045256
3810	0.00352731
3822	0.00725428
3834	0.00652219
3846	0.0055239
3858	0.00818602
3870	0.00638909
3882	0.00465871
3894	0.00625598
3906	0.00472526
3918	0.00206314
3930	0.00359386
3942	0.00445905
3954	0
3966	0.000399318
