Infrared Spectrum: Phenol, 2-(1,1-dimethylethyl)-5-methyl-
Formula: C 11 H 16 O
CAS: 88-60-8
Origin: Sadtler Research Labs Under US-EPA Contract
1/CM	ABSORBANCE
450	0.0295053
462	0.00876316
474	0.0120594
486	0.0262895
498	0.0470317
510	0.0332035
522	0.0293445
534	0.0241188
546	0.0248424
558	0.0322388
570	0.0642364
582	0.0663267
594	0.0861845
606	0.0271738
618	0.00723564
630	0.00241188
642	0.0079592
654	0.0137477
666	0.00490416
678	0.00434138
690	0.00321584
702	0.00257267
714	0.00217069
726	0.0265307
738	0.044057
750	0.0110143
762	0.00988871
774	0.0132653
786	0.020501
798	0.136673
810	0.2112
822	0.0557144
834	0.0467101
846	0.0442178
858	0.0221893
870	0.0241992
882	0.00972792
894	0.00530614
906	0.00675326
918	0.0124614
930	0.0323996
942	0.103872
954	0.0933398
966	0.0190539
978	0.0193754
990	0.0343291
1002	0.0460669
1014	0.0393136
1026	0.036339
1038	0.0221893
1050	0.0267719
1062	0.0352938
1074	0.120835
1086	0.130161
1098	0.0391529
1110	0.0346507
1122	0.106364
1134	0.319574
1146	0.251157
1158	0.193433
1170	0.198498
1182	0.447967
1194	0.418059
1206	0.206216
1218	0.0860237
1230	0.0746879
1242	0.110544
1254	0.174942
1266	0.206135
1278	0.142381
1290	0.209432
1302	0.182821
1314	0.183946
1326	0.105801
1338	0.0385097
1350	0.0384293
1362	0.124855
1374	0.151546
1386	0.105078
1398	0.20911
1410	0.244404
1422	0.276482
1434	0.18266
1446	0.10958
1458	0.108937
1470	0.130402
1482	0.147044
1494	0.147366
1506	0.1665
1518	0.159023
1530	0.102585
1542	0.0654423
1554	0.0489612
1566	0.0775017
1578	0.092777
1590	0.0647992
1602	0.0734015
1614	0.121639
1626	0.181213
1638	0.0783057
1650	0.0208226
1662	0.0173655
1674	0.0193754
1686	0.0143909
1698	0.00948673
1710	0.00868277
1722	0.00964752
1734	0.0114966
1746	0.0121398
1758	0.00683366
1770	0.00586891
1782	0.00763762
1794	0.00659247
1806	0.00731604
1818	0.00667287
1830	0.0060297
1842	0.00715524
1854	0.00836118
1866	0.0109339
1878	0.0164812
1890	0.0126222
1902	0.00860237
1914	0.00812
1926	0.00691406
1938	0.00530614
1950	0.00506495
1962	0.00562772
1974	0.00554732
1986	0.00554732
1998	0.00506495
2010	0.00369822
2022	0.00265307
2034	0.00225109
2046	0.000723564
2058	0.00040198
2070	0.00104515
2082	0.00321584
2094	0.00482376
2106	0.0060297
2118	0.0059493
2130	0.00635128
2142	0.00619049
2154	0.00522574
2166	0.00498455
2178	0.00570812
2190	0.0059493
2202	0.00619049
2214	0.00530614
2226	0.00506495
2238	0.00474336
2250	0.00482376
2262	0.0041002
2274	0.00458257
2286	0.00538653
2298	0.00578851
2310	0.00538653
2322	0.00369822
2334	0.00369822
2346	0.00297465
2358	0.00241188
2370	0.00474336
2382	0.0060297
2394	0.00667287
2406	0.00554732
2418	0.00546693
2430	0.00562772
2442	0.00747683
2454	0.00779841
2466	0.0059493
2478	0.00474336
2490	0.00418059
2502	0.00418059
2514	0.00297465
2526	0.00233148
2538	0.0020099
2550	0.00273346
2562	0.00289426
2574	0.000884356
2586	0.000723564
2598	0.00120594
2610	0.00112554
2622	0.0040198
2634	0.00546693
2646	0.00369822
2658	0.00458257
2670	0.00474336
2682	0.00289426
2694	0.00184911
2706	0.00313544
2718	0.00763762
2730	0.00868277
2742	0.0120594
2754	0.00900435
2766	0.00570812
2778	0.00659247
2790	0.00988871
2802	0.0114162
2814	0.0150341
2826	0.0202598
2838	0.0259679
2850	0.0435746
2862	0.10347
2874	0.257991
2886	0.311534
2898	0.260242
2910	0.290069
2922	0.403266
2934	0.441213
2946	0.419748
2958	0.632475
2970	0.803638
2982	0.409055
2994	0.213451
3006	0.244484
3018	0.154119
3030	0.130885
3042	0.136914
3054	0.0882748
3066	0.04872
3078	0.0485592
3090	0.0576439
3102	0.0417255
3114	0.0213853
3126	0.0135065
3138	0.0135065
3150	0.00868277
3162	0.0109339
3174	0.00836118
3186	0.00972792
3198	0.00868277
3210	0.0079592
3222	0.00627089
3234	0.00739643
3246	0.00868277
3258	0.00715524
3270	0.00723564
3282	0.00715524
3294	0.00586891
3306	0.00659247
3318	0.00458257
3330	0.00385901
3342	0.00377861
3354	0.00257267
3366	0.00426099
3378	0.00217069
3390	0.00313544
3402	0.00305505
3414	0.0019295
3426	0.00225109
3438	0.00225109
3450	0.00305505
3462	0.00482376
3474	0.00257267
3486	0.000562772
3498	0.00297465
3510	0.000723564
3522	8.0396e-05
3534	0.00217069
3546	0.00136673
3558	0.00321584
3570	0.00120594
3582	0.00418059
3594	0.00273346
3606	0.00474336
3618	0.0106927
3630	0.055634
3642	0.274552
3654	0.211441
3666	0.10154
3678	0.108937
3690	0.0385097
3702	0.0153556
3714	0.00554732
3726	0.00377861
3738	0.00265307
3750	0.00289426
3762	8.0396e-05
3774	0.00273346
3786	0.00136673
3798	0.00466297
3810	0.000884356
3822	0.00426099
3834	0.00345703
3846	0.00530614
3858	0.00578851
3870	0.000160792
3882	0
3894	0.00434138
3906	0.000160792
3918	0.00345703
3930	0.00635128
3942	0.00635128
3954	0.0143105
3966	0.00755722
