Infrared Spectrum: Phenol, 2-(1-methylethyl)-
Formula: C 9 H 12 O
CAS: 88-69-7
Origin: Sadtler Research Labs Under US-EPA Contract
1/CM	ABSORBANCE
450	0.0600344
462	0.0402285
474	0.0784532
486	0.0752164
498	0.0419239
510	0.0753705
522	0.0562582
534	0.0254318
546	0.0215785
558	0.0132554
570	0.0241987
582	0.0222721
594	0.0259712
606	0.0155673
618	0.00508636
630	0.0139489
642	0.00616528
654	0.00192665
666	0.0040845
678	0.00670474
690	0.00870846
702	0.0180334
714	0.0329842
726	0.0926333
738	0.362364
750	0.602194
762	0.191894
774	0.0232739
786	0.0157215
798	0.0118682
810	0.0398431
822	0.146734
834	0.118219
846	0.0225033
858	0.0129471
870	0.00863139
882	0.0172628
894	0.0227345
906	0.0107892
918	0.0124076
930	0.0224262
942	0.0153361
954	0.00893966
966	0.0079378
978	0.00832313
990	0.00878552
1002	0.00863139
1014	0.0176481
1026	0.0687429
1038	0.126003
1050	0.0853121
1062	0.0651208
1074	0.11321
1086	0.148275
1098	0.10034
1110	0.125463
1122	0.110744
1134	0.107815
1146	0.222567
1158	0.249386
1170	0.412457
1182	0.48305
1194	0.270964
1206	0.289075
1218	0.214243
1230	0.149123
1242	0.259481
1254	0.318668
1266	0.130935
1278	0.188812
1290	0.23875
1302	0.128623
1314	0.201451
1326	0.251004
1338	0.106659
1350	0.0440818
1362	0.0635024
1374	0.0759871
1386	0.0695135
1398	0.0518654
1410	0.0318283
1422	0.0372999
1434	0.0736751
1446	0.211469
1458	0.352654
1470	0.232662
1482	0.206691
1494	0.328532
1506	0.23798
1518	0.0662768
1530	0.0269731
1542	0.0182646
1554	0.0181876
1566	0.0421551
1578	0.107122
1590	0.150587
1602	0.127082
1614	0.0934811
1626	0.0362981
1638	0.00978738
1650	0.00955618
1662	0.0138719
1674	0.0185729
1686	0.015182
1698	0.011714
1710	0.00909379
1722	0.00701301
1734	0.00685887
1746	0.00539462
1758	0.0117911
1770	0.016338
1782	0.0139489
1794	0.0133324
1806	0.00971032
1818	0.00732127
1830	0.00531755
1842	0.00616528
1854	0.00639648
1866	0.00655061
1878	0.0124847
1890	0.0206537
1902	0.0134095
1914	0.0100186
1926	0.0151049
1938	0.00863139
1950	0.00262024
1962	0.00308264
1974	0.00285144
1986	0.00169545
1998	0.00169545
2010	0.00077066
2022	0.000616528
2034	0.00169545
2046	0.00131012
2058	0.00238905
2070	0.00678181
2082	0.00462396
2094	0.00161839
2106	0.00192665
2118	0.00177252
2130	0.00038533
2142	0.000693594
2154	0.000462396
2166	0.000462396
2178	0.000231198
2190	0.000462396
2202	0.000616528
2214	0.00123306
2226	0.00169545
2238	0.00208078
2250	0.00277438
2262	0.00315971
2274	0.0038533
2286	0.00400743
2298	0.00246611
2310	0.00169545
2322	0.00277438
2334	0.0038533
2346	0.00647354
2358	0.00077066
2370	0.00932499
2382	0.0077066
2394	0.00709007
2406	0.00778367
2418	0.00940205
2430	0.0103268
2442	0.00693594
2454	0.00631941
2466	0.00593408
2478	0.00840019
2490	0.00994151
2502	0.00893966
2514	0.00570288
2526	0.00562582
2538	0.00354504
2550	0.00315971
2562	0.00354504
2574	0.0040845
2586	0.00439276
2598	0.00601115
2610	0.00647354
2622	0.00500929
2634	0.00416156
2646	0.00524049
2658	0.00346797
2670	0.00493222
2682	0.00870846
2694	0.00739834
2706	0.00601115
2718	0.00709007
2730	0.00909379
2742	0.00994151
2754	0.00755247
2766	0.00824606
2778	0.00917085
2790	0.00940205
2802	0.0111746
2814	0.0178022
2826	0.0223491
2838	0.0241217
2850	0.0344485
2862	0.0632712
2874	0.161839
2886	0.229734
2898	0.181876
2910	0.168929
2922	0.182492
2934	0.244685
2946	0.292234
2958	0.39558
2970	0.755478
2982	0.50247
2994	0.146348
3006	0.071209
3018	0.0860057
3030	0.132168
3042	0.155057
3054	0.130781
3066	0.134403
3078	0.168389
3090	0.113287
3102	0.0564894
3114	0.0324448
3126	0.0191124
3138	0.0129471
3150	0.010558
3162	0.0119452
3174	0.0123306
3186	0.0137177
3198	0.0124076
3210	0.0110975
3222	0.00978738
3234	0.00909379
3246	0.00801486
3258	0.0072442
3270	0.00809193
3282	0.00824606
3294	0.00709007
3306	0.00655061
3318	0.0038533
3330	0.00107892
3342	0.00331384
3354	0.00608821
3366	0.0074754
3378	0.00870846
3390	0.00886259
3402	0.00832313
3414	0.00685887
3426	0.00539462
3438	0.00616528
3450	0.00524049
3462	0.00516342
3474	0.00500929
3486	0.00423863
3498	0.00416156
3510	0.0036221
3522	0.00123306
3534	0.00269731
3546	0.00285144
3558	0.00346797
3570	0.00323677
3582	0.00685887
3594	0.00593408
3606	0.00978738
3618	0.0111746
3630	0.0425404
3642	0.246457
3654	0.404442
3666	0.169468
3678	0.0371458
3690	0.0109434
3702	0.0079378
3714	0.00485516
3726	0.00778367
3738	0.00454689
3750	0.0036221
3762	0.0100956
3774	0.00709007
3786	0.00955618
3798	0.00932499
3810	0.0077066
3822	0.0077066
3834	0.008169
3846	0.0077066
3858	0.00693594
3870	0.0103268
3882	0.00570288
3894	0.00855433
3906	0.00801486
3918	0.00709007
3930	0.00423863
3942	0.00300557
3954	0.0134095
3966	0.0161068
