Infrared Spectrum: Phenol, 2-nitro-
Formula: C 6 H 5 N O 3
CAS: 88-75-5
Origin: Sadtler Research Labs Under US-EPA Contract
1/CM	ABSORBANCE
450	0
462	0.0319334
474	0.0297656
486	0.0307661
498	0.0379365
510	0.034935
522	0.0555291
534	0.0993854
546	0.0709538
558	0.0434394
570	0.0386869
582	0.0470246
594	0.0474415
606	0.055279
618	0.0547787
630	0.0600314
642	0.0907142
654	0.143992
666	0.211361
678	0.245045
690	0.217114
702	0.125149
714	0.0560293
726	0.0841274
738	0.201022
750	0.367192
762	0.16592
774	0.0679523
786	0.0489423
798	0.0437729
810	0.0777907
822	0.0901305
834	0.0541951
846	0.0409381
858	0.0952999
870	0.165753
882	0.102887
894	0.0251799
906	0.0226785
918	0.0275978
930	0.0269308
942	0.0306827
954	0.0361856
966	0.0294321
978	0.0284316
990	0.0335176
1002	0.0380199
1014	0.0639502
1026	0.114894
1038	0.0997189
1050	0.0421054
1062	0.0536948
1074	0.0937157
1086	0.0887131
1098	0.0600314
1110	0.0646172
1122	0.0722045
1134	0.134154
1146	0.160334
1158	0.142241
1170	0.149328
1182	0.192517
1194	0.30641
1206	0.325504
1218	0.231538
1230	0.198437
1242	0.262221
1254	0.477417
1266	0.523274
1278	0.387703
1290	0.303659
1302	0.24246
1314	0.379199
1326	0.700367
1338	0.83377
1350	0.494926
1362	0.251382
1374	0.218281
1386	0.190933
1398	0.144075
1410	0.105389
1422	0.078958
1434	0.0907976
1446	0.151913
1458	0.347515
1470	0.6365
1482	0.549871
1494	0.262304
1506	0.124649
1518	0.130318
1530	0.270808
1542	0.526025
1554	0.482169
1566	0.228203
1578	0.247213
1590	0.369944
1602	0.467828
1614	0.542701
1626	0.52836
1638	0.238375
1650	0.0589475
1662	0.0441064
1674	0.0299323
1686	0.0385202
1698	0.0342679
1710	0.0320168
1722	0.0300991
1734	0.0346015
1746	0.0324337
1758	0.0292653
1770	0.0227619
1782	0.0253466
1794	0.0277645
1806	0.0376864
1818	0.0351851
1830	0.0255967
1842	0.0290986
1854	0.0256801
1866	0.024096
1878	0.0265973
1890	0.0280147
1902	0.0292653
1914	0.0303492
1926	0.0316833
1938	0.0304326
1950	0.0328505
1962	0.0300157
1974	0.0231788
1986	0.0220949
1998	0.0233456
2010	0.0229287
2022	0.022345
2034	0.021678
2046	0.0215946
2058	0.0220949
2070	0.0220115
2082	0.0225952
2094	0.0225952
2106	0.0217614
2118	0.0225952
2130	0.0231788
2142	0.022345
2154	0.0224284
2166	0.0212611
2178	0.0208442
2190	0.0210944
2202	0.0208442
2214	0.0209276
2226	0.0204274
2238	0.0200105
2250	0.0197603
2262	0.0200105
2274	0.0210944
2286	0.0235123
2298	0.0255967
2310	0.0252632
2322	0.0215946
2334	0.0197603
2346	0.0208442
2358	0.0183429
2370	0.0183429
2382	0.0238458
2394	0.0217614
2406	0.0236791
2418	0.024763
2430	0.0231788
2442	0.0217614
2454	0.0214279
2466	0.0213445
2478	0.0214279
2490	0.0220115
2502	0.0217614
2514	0.0218448
2526	0.0220115
2538	0.0219282
2550	0.0220949
2562	0.0231788
2574	0.0245128
2586	0.0248463
2598	0.0236791
2610	0.0224284
2622	0.0220115
2634	0.0214279
2646	0.0227619
2658	0.0228453
2670	0.0220115
2682	0.0205107
2694	0.0207609
2706	0.0212611
2718	0.0225118
2730	0.0230954
2742	0.0224284
2754	0.0199271
2766	0.0186764
2778	0.019677
2790	0.0219282
2802	0.0227619
2814	0.0235123
2826	0.0232622
2838	0.0232622
2850	0.0249297
2862	0.0253466
2874	0.0257635
2886	0.0265139
2898	0.0255967
2910	0.0253466
2922	0.0258469
2934	0.0250131
2946	0.0256801
2958	0.0250131
2970	0.026097
2982	0.0259302
2994	0.0270141
3006	0.0280147
3018	0.0282648
3030	0.0269308
3042	0.0315999
3054	0.0408547
3066	0.0436895
3078	0.0539449
3090	0.0705369
3102	0.0527776
3114	0.0249297
3126	0.0187598
3138	0.0195936
3150	0.0201772
3162	0.0217614
3174	0.0245128
3186	0.0287651
3198	0.0357687
3210	0.0472748
3222	0.0682858
3234	0.100553
3246	0.133903
3258	0.151329
3270	0.156832
3282	0.149995
3294	0.140157
3306	0.125316
3318	0.110558
3330	0.101303
3342	0.0952999
3354	0.0881295
3366	0.0780409
3378	0.0695364
3390	0.0596979
3402	0.0506098
3414	0.0427724
3426	0.0351017
3438	0.031183
3450	0.0297656
3462	0.0281814
3474	0.0245128
3486	0.0243461
3498	0.0214279
3510	0.0242627
3522	0.0271809
3534	0.0273477
3546	0.0296822
3558	0.0280147
3570	0.0276812
3582	0.0241793
3594	0.0291819
3606	0.0252632
3618	0.0249297
3630	0.0270975
3642	0.0277645
3654	0.0315165
3666	0.0238458
3678	0.0233456
3690	0.030516
3702	0.026764
3714	0.0301825
3726	0.0316833
3738	0.0276812
3750	0.0328505
3762	0.0269308
3774	0.0308495
3786	0.0310162
3798	0.0327672
3810	0.0222617
3822	0.0269308
3834	0.0283482
3846	0.032517
3858	0.0295155
3870	0.0290986
3882	0.0336843
3894	0.0279313
3906	0.0338511
3918	0.0280147
3930	0.0275144
3942	0.0301825
3954	0.0309329
3966	0.0300157
