Infrared Spectrum: Benzene, 1-methyl-2-nitro-
Formula: C 7 H 7 N O 2
CAS: 88-72-2
Origin: Sadtler Research Labs Under US-EPA Contract
1/CM	ABSORBANCE
450	0.033952
462	0.0236419
474	0.0481727
486	0.0117321
498	0.00551053
510	0.00622157
522	0.00195535
534	0.00604381
546	0.00853243
558	0.00373294
570	0.00657708
582	0.00568829
594	0.000177759
606	0.00888795
618	0.0099545
630	0.00604381
642	0.0101323
654	0.0471061
666	0.125498
678	0.0679039
690	0.0341297
702	0.039818
714	0.183092
726	0.517279
738	0.343608
750	0.0952788
762	0.0712814
774	0.151806
786	0.241397
798	0.127631
810	0.0209756
822	0.0135097
834	0.014754
846	0.0961676
858	0.291347
870	0.127809
882	0.01031
894	0.0099545
906	0.0145762
918	0.01031
930	0.00871019
942	0.0161761
954	0.0151095
966	0.00835467
978	0.00871019
990	0.00924347
1002	0.00924347
1014	0.00906571
1026	0.0135097
1038	0.0387515
1050	0.0561718
1062	0.0270194
1074	0.0195535
1086	0.028797
1098	0.0277304
1110	0.0167093
1122	0.0122654
1134	0.019909
1146	0.0414178
1158	0.0570606
1170	0.0351963
1182	0.0159983
1194	0.019198
1206	0.0296858
1218	0.0207978
1230	0.0120876
1242	0.0193757
1254	0.0241752
1266	0.0332409
1278	0.0453285
1290	0.0684372
1302	0.0974119
1314	0.102567
1326	0.0983007
1338	0.199801
1350	0.817869
1362	1.1597
1374	0.309123
1386	0.151806
1398	0.140252
1410	0.0869242
1422	0.0984785
1434	0.11981
1446	0.120343
1458	0.14754
1470	0.152162
1482	0.182203
1494	0.197846
1506	0.251351
1518	0.460751
1530	1.02514
1542	1.50224
1554	1.17392
1566	0.539854
1578	0.342719
1590	0.229131
1602	0.184514
1614	0.205845
1626	0.145407
1638	0.0559941
1650	0.0408846
1662	0.0241752
1674	0.0293302
1686	0.0234642
1698	0.0247085
1710	0.0124431
1722	0.0159983
1734	0.0271971
1746	0.0143985
1758	0.0113766
1770	0.015465
1782	0.0099545
1794	0.0181314
1806	0.0211533
1818	0.014043
1830	0.014754
1842	0.0143985
1854	0.00515501
1866	0.00551053
1878	0.00426622
1890	0.00942123
1902	0.00942123
1914	0.0136874
1926	0.0197312
1938	0.0133319
1950	0.0131542
1962	0.0152873
1974	0.00444397
1986	0.000888795
1998	0.00124431
2010	0.00124431
2022	0.00106655
2034	0.000533277
2046	0.00124431
2058	0.000355518
2070	0.00142207
2082	0.00106655
2094	0.000355518
2106	0.000533277
2118	0.000355518
2130	0.000533277
2142	0.00124431
2154	0.00142207
2166	0.00159983
2178	0.00319966
2190	0.00231087
2202	0.00106655
2214	0.00159983
2226	0.00106655
2238	0.00231087
2250	0.00231087
2262	0.000888795
2274	0.00106655
2286	0.000533277
2298	0.000711036
2310	0.00266638
2322	0.00462173
2334	0.00373294
2346	0.00106655
2358	0.00195535
2370	0.00195535
2382	0.00426622
2394	0.00728812
2406	0.00728812
2418	0.00639932
2430	0.00639932
2442	0.00728812
2454	0.00586605
2466	0.00213311
2478	0.00213311
2490	0.00248863
2502	0.0030219
2514	0.00355518
2526	0.00177759
2538	0.00142207
2550	0.00213311
2562	0.00213311
2574	0.00319966
2586	0.00533277
2598	0.00497725
2610	0.00426622
2622	0.00408846
2634	0.00426622
2646	0.00462173
2658	0.00515501
2670	0.00622157
2682	0.00675484
2694	0.00817691
2706	0.00959899
2718	0.00799915
2730	0.00533277
2742	0.00639932
2754	0.0104878
2766	0.0110211
2778	0.00639932
2790	0.00622157
2802	0.00639932
2814	0.00835467
2826	0.0113766
2838	0.0152873
2850	0.0209756
2862	0.0323521
2874	0.0522611
2886	0.0661263
2898	0.0568829
2910	0.0430177
2922	0.0479949
2934	0.0741255
2946	0.110388
2958	0.0926124
2970	0.0638155
2982	0.0933235
2994	0.107011
3006	0.0639932
3018	0.0371516
3030	0.0511946
3042	0.0718146
3054	0.069326
3066	0.113944
3078	0.17527
3090	0.121765
3102	0.0376849
3114	0.015465
3126	0.01031
3138	0.00675484
3150	0.00551053
3162	0.00568829
3174	0.00462173
3186	0.00373294
3198	0.00426622
3210	0.00337742
3222	0.00355518
3234	0.00337742
3246	0.00231087
3258	0.00213311
3270	0.00231087
3282	0.00177759
3294	0.00231087
3306	0.00195535
3318	0.00195535
3330	0.00248863
3342	0.00231087
3354	0.00159983
3366	0.00248863
3378	0.00159983
3390	0.00195535
3402	0.00231087
3414	0.00231087
3426	0.00266638
3438	0.00195535
3450	0.00195535
3462	0.00213311
3474	0.00177759
3486	0.00231087
3498	0.00213311
3510	0.00213311
3522	0.00231087
3534	0.00213311
3546	0.00284414
3558	0.00142207
3570	0.00248863
3582	0.00266638
3594	0.0030219
3606	0.00177759
3618	0.00355518
3630	0.00515501
3642	0.0030219
3654	0.00319966
3666	0.00124431
3678	0.00408846
3690	0.00231087
3702	0.00355518
3714	0.00373294
3726	0.00426622
3738	0.00266638
3750	0.00462173
3762	0.00284414
3774	0.00284414
3786	0.00231087
3798	0.00106655
3810	0.00355518
3822	0.00497725
3834	0.0030219
3846	0.00373294
3858	0.00444397
3870	0.00497725
3882	0.00533277
3894	0.00284414
3906	0.00479949
3918	0.00408846
3930	0.00355518
3942	0.00479949
3954	0.0039107
3966	0.00373294
