Infrared Spectrum: Benzene, 1-chloro-2-nitro-
Formula: C 6 H 4 Cl N O 2
CAS: 88-73-3
Origin: Sadtler Research Labs Under US-EPA Contract
1/CM	ABSORBANCE
450	0.0567442
462	0.0787166
474	0.0253856
486	0.0181325
498	0.0202658
510	0.0214391
522	0.0212257
534	0.015146
546	0.00831964
558	0.00789299
570	0.014506
582	0.0215457
594	0.0281588
606	0.0147194
618	0.0114128
630	0.0202658
642	0.0582375
654	0.112742
666	0.0529044
678	0.0253856
690	0.0449047
702	0.0450114
714	0.114555
726	0.325639
738	0.356571
750	0.199031
762	0.210551
774	0.193058
786	0.068477
798	0.0262389
810	0.0269855
822	0.0277321
834	0.0386116
846	0.191992
858	0.229323
870	0.0449047
882	0.023039
894	0.0184525
906	0.0150393
918	0.015466
930	0.0218657
942	0.0262389
954	0.0268788
966	0.0182392
978	0.0177059
990	0.0179192
1002	0.0197325
1014	0.0279454
1026	0.0568508
1038	0.0795699
1050	0.150713
1062	0.208738
1074	0.0929026
1086	0.0356251
1098	0.0314653
1110	0.0356251
1122	0.0667704
1134	0.0879962
1146	0.0600507
1158	0.0520511
1170	0.0456513
1182	0.0376517
1194	0.0325319
1206	0.0298654
1218	0.030932
1230	0.0353051
1242	0.0415982
1254	0.0631439
1266	0.0563175
1278	0.0483179
1290	0.0674104
1302	0.0862896
1314	0.0913027
1326	0.0925826
1338	0.194125
1350	0.503765
1362	0.652771
1374	0.272415
1386	0.0807431
1398	0.0589841
1410	0.0479979
1422	0.0492778
1434	0.0863962
1446	0.0968491
1458	0.118821
1470	0.22335
1482	0.176419
1494	0.0963158
1506	0.132901
1518	0.213431
1530	0.378863
1542	0.753994
1554	1.06662
1566	0.68253
1578	0.430488
1590	0.448834
1602	0.31444
1614	0.103889
1626	0.0419182
1638	0.0242123
1650	0.0125861
1662	0.0170659
1674	0.00575975
1686	0.00895961
1698	0.00735968
1710	0.0114128
1722	0.0114128
1734	0.0156793
1746	0.0108795
1758	0.00863962
1770	0.00586641
1782	0.00725302
1794	0.0100262
1806	0.0167459
1818	0.0127994
1830	0.00586641
1842	0.0098129
1854	0.00597307
1866	0.00469313
1878	0.00693303
1890	0.00874628
1902	0.00831964
1914	0.014506
1926	0.016106
1938	0.0101329
1950	0.0138661
1962	0.0119461
1974	0.00341318
1986	0.00245323
1998	0.00319986
2010	0.00266655
2022	0.00298654
2034	0.00298654
2046	0.00287987
2058	0.00255989
2070	0.00245323
2082	0.00191992
2094	0.00245323
2106	0.00170659
2118	0.00170659
2130	0.00245323
2142	0.00181325
2154	0.00170659
2166	0.00117328
2178	0.00234656
2190	0.00255989
2202	0.00277321
2214	0.00234656
2226	0.00138661
2238	0.00159993
2250	0.00191992
2262	0.0022399
2274	0.00266655
2286	0.00373317
2298	0.0044798
2310	0.0030932
2322	0
2334	0
2346	0
2358	0
2370	0.000319986
2382	0.00554642
2394	0.00565309
2406	0.00565309
2418	0.00501311
2430	0.00362651
2442	0.00266655
2454	0.00234656
2466	0.00191992
2478	0.00287987
2490	0.00373317
2502	0.00394649
2514	0.00383983
2526	0.00330652
2538	0.00383983
2550	0.00394649
2562	0.00394649
2574	0.00394649
2586	0.00437314
2598	0.00458647
2610	0.0053331
2622	0.00575975
2634	0.00543976
2646	0.00650638
2658	0.00586641
2670	0.00607973
2682	0.00693303
2694	0.00917293
2706	0.0114128
2718	0.0115195
2730	0.00917293
2742	0.00789299
2754	0.00661304
2766	0.00501311
2778	0.00469313
2790	0.00554642
2802	0.00565309
2814	0.00725302
2826	0.00693303
2838	0.00735968
2850	0.00949292
2862	0.0120528
2874	0.0146127
2886	0.0189858
2898	0.022399
2910	0.0214391
2922	0.0169593
2934	0.0120528
2946	0.00970624
2958	0.00799965
2970	0.00682637
2982	0.00735968
2994	0.00799965
3006	0.00938626
3018	0.0114128
3030	0.00991957
3042	0.0114128
3054	0.0133328
3066	0.0211191
3078	0.0626106
3090	0.0689037
3102	0.0177059
3114	0.00629306
3126	0.00437314
3138	0.00543976
3150	0.0061864
3162	0.00543976
3174	0.0053331
3186	0.00479979
3198	0.00351985
3210	0.00351985
3222	0.00319986
3234	0.0030932
3246	0.00319986
3258	0.00287987
3270	0.00426648
3282	0.0044798
3294	0.00405316
3306	0.0044798
3318	0.00511978
3330	0.00597307
3342	0.00575975
3354	0.00554642
3366	0.00511978
3378	0.00693303
3390	0.00767966
3402	0.00831964
3414	0.00597307
3426	0.0044798
3438	0.00362651
3450	0.0053331
3462	0.00597307
3474	0.00565309
3486	0.0061864
3498	0.00629306
3510	0.00703969
3522	0.00703969
3534	0.00501311
3546	0.0084263
3558	0.00821297
3570	0.00863962
3582	0.00565309
3594	0.00938626
3606	0.00490645
3618	0.00575975
3630	0.00821297
3642	0.00735968
3654	0.0117328
3666	0.00554642
3678	0.00597307
3690	0.0125861
3702	0.0084263
3714	0.0126928
3726	0.0108795
3738	0.00853296
3750	0.0183459
3762	0.00607973
3774	0.0121595
3786	0.0115195
3798	0.0152527
3810	0.00767966
3822	0.00767966
3834	0.00959958
3846	0.0108795
3858	0.0132261
3870	0.00693303
3882	0.0133328
3894	0.00490645
3906	0.0137594
3918	0.0110928
3930	0.0113062
3942	0.00917293
3954	0.0120528
3966	0.0108795
