Infrared Spectrum: Phenol, 2-(1-methylpropyl)-4,6-dinitro-
Formula: C 10 H 12 N 2 O 5
CAS: 88-85-7
Origin: Sadtler Research Labs Under US-EPA Contract
1/CM	ABSORBANCE
450	0
462	0.105477
474	0.0976014
486	0.097402
498	0.12751
510	0.13399
522	0.131597
534	0.108169
546	0.104181
558	0.121927
570	0.133791
582	0.12093
594	0.121528
606	0.122625
618	0.125715
630	0.122326
642	0.125516
654	0.132096
666	0.134887
678	0.149842
690	0.168385
702	0.227305
714	0.292705
726	0.208761
738	0.202082
750	0.157418
762	0.166491
774	0.152334
786	0.152135
798	0.136084
810	0.126014
822	0.119734
834	0.122226
846	0.121927
858	0.112954
870	0.110961
882	0.110163
894	0.116045
906	0.145256
918	0.168485
930	0.18623
942	0.122525
954	0.111758
966	0.11425
978	0.110761
990	0.109066
1002	0.113054
1014	0.116344
1026	0.112157
1038	0.109365
1050	0.117042
1062	0.139872
1074	0.187227
1086	0.193907
1098	0.171675
1110	0.156023
1122	0.133691
1134	0.135585
1146	0.158216
1158	0.145854
1170	0.150041
1182	0.137479
1194	0.1306
1206	0.142364
1218	0.12741
1230	0.143561
1242	0.207366
1254	0.337667
1266	0.40546
1278	0.354914
1290	0.237573
1302	0.217036
1314	0.248938
1326	0.308955
1338	0.622396
1350	0.995255
1362	0.415329
1374	0.255319
1386	0.207067
1398	0.169681
1410	0.180448
1422	0.236676
1434	0.345643
1446	0.415628
1458	0.336969
1470	0.259905
1482	0.184635
1494	0.184735
1506	0.173569
1518	0.16669
1530	0.171376
1542	0.302574
1554	0.432078
1566	0.636652
1578	0.24515
1590	0.236078
1602	0.32999
1614	0.495185
1626	0.231093
1638	0.136283
1650	0.121827
1662	0.115247
1674	0.108967
1686	0.106474
1698	0.105776
1710	0.10119
1722	0.103085
1734	0.104381
1746	0.106973
1758	0.104381
1770	0.103184
1782	0.101589
1794	0.104082
1806	0.10468
1818	0.105976
1830	0.103483
1842	0.101589
1854	0.098399
1866	0.097402
1878	0.0959066
1890	0.0964051
1902	0.0962057
1914	0.0954081
1926	0.0953084
1938	0.0948099
1950	0.0947102
1962	0.0958069
1974	0.0953084
1986	0.0949096
1998	0.0953084
2010	0.0949096
2022	0.0947102
2034	0.0941121
2046	0.0945109
2058	0.0947102
2070	0.0965048
2082	0.0954081
2094	0.0944112
2106	0.0950093
2118	0.0935139
2130	0.0937133
2142	0.0942118
2154	0.0939127
2166	0.093813
2178	0.0943115
2190	0.0937133
2202	0.0933145
2214	0.0934142
2226	0.0934142
2238	0.0936136
2250	0.0950093
2262	0.0954081
2274	0.0963054
2286	0.095109
2298	0.0948099
2310	0.0939127
2322	0.0946106
2334	0.0954081
2346	0.0962057
2358	0.0960063
2370	0.0959066
2382	0.0966045
2394	0.0956075
2406	0.0962057
2418	0.0968038
2430	0.0976014
2442	0.0980999
2454	0.0977011
2466	0.0980999
2478	0.097402
2490	0.0984987
2502	0.0980002
2514	0.0969035
2526	0.0980002
2538	0.0981996
2550	0.0978008
2562	0.0975017
2574	0.0984987
2586	0.098698
2598	0.0980002
2610	0.0999941
2622	0.100991
2634	0.100891
2646	0.100393
2658	0.100692
2670	0.0998944
2682	0.100792
2694	0.101888
2706	0.102187
2718	0.102088
2730	0.101789
2742	0.102985
2754	0.103384
2766	0.102586
2778	0.103982
2790	0.104879
2802	0.105477
2814	0.107671
2826	0.109166
2838	0.110961
2850	0.113652
2862	0.121728
2874	0.149842
2886	0.182442
2898	0.158415
2910	0.147349
2922	0.162004
2934	0.190617
2946	0.211453
2958	0.171974
2970	0.284829
2982	0.30726
2994	0.154627
3006	0.120731
3018	0.112356
3030	0.110163
3042	0.110562
3054	0.11116
3066	0.113852
3078	0.116543
3090	0.122725
3102	0.137878
3114	0.183738
3126	0.14715
3138	0.147947
3150	0.157717
3162	0.162702
3174	0.164397
3186	0.1634
3198	0.162403
3210	0.159911
3222	0.155923
3234	0.15034
3246	0.146053
3258	0.141966
3270	0.139872
3282	0.13728
3294	0.133691
3306	0.129803
3318	0.12741
3330	0.123422
3342	0.12093
3354	0.119734
3366	0.117939
3378	0.115646
3390	0.112954
3402	0.111957
3414	0.111359
3426	0.109764
3438	0.110063
3450	0.109066
3462	0.108069
3474	0.107372
3486	0.105577
3498	0.105577
3510	0.10448
3522	0.103683
3534	0.102387
3546	0.100891
3558	0.099695
3570	0.100293
3582	0.0988974
3594	0.0995953
3606	0.098399
3618	0.0966045
3630	0.0988974
3642	0.0966045
3654	0.0971029
3666	0.0953084
3678	0.0934142
3690	0.0943115
3702	0.0934142
3714	0.0935139
3726	0.0934142
3738	0.0941121
3750	0.0933145
3762	0.0930154
3774	0.0930154
3786	0.0930154
3798	0.0930154
3810	0.0930154
3822	0.0930154
3834	0.0930154
3846	0.0930154
3858	0.0930154
3870	0.0930154
3882	0.0930154
3894	0.0930154
3906	0.0943115
3918	0.0941121
3930	0.0931151
3942	0.0932148
3954	0.0953084
3966	0.093813
