Infrared Spectrum: 4'-Bromo-2'-nitroacetanilide
Formula: C 8 H 7 Br N 2 O 3
CAS: 881-50-5
Origin: Sadtler Research Labs Under US-EPA Contract
1/CM	ABSORBANCE
450	0
462	0.00711067
474	0.00636707
486	0.00422922
498	0.00506577
510	0.0096668
522	0.0190547
534	0.0275132
546	0.011154
558	0.0108287
570	0.0104104
582	0.013989
594	0.0129665
606	0.00915557
618	0.00827255
630	0.0109681
642	0.0127341
654	0.0177999
666	0.0219362
678	0.0171028
690	0.0118511
702	0.0147791
714	0.0288145
726	0.0345774
738	0.0175675
750	0.0102245
762	0.0138031
774	0.00673888
786	0.00566995
798	0.00404332
810	0.005577
822	0.0237952
834	0.0424781
846	0.0127806
858	0.0118511
870	0.0359252
882	0.0282568
894	0.0121765
906	0.00492635
918	0.0031603
930	0.00292793
942	0.0039039
954	0.0068783
966	0.0081796
978	0.012037
990	0.0206814
1002	0.0168704
1014	0.00813312
1026	0.00738953
1038	0.00878377
1050	0.0100851
1062	0.0131989
1074	0.0211926
1086	0.0218432
1098	0.0236558
1110	0.0115723
1122	0.00850492
1134	0.00883025
1146	0.0191477
1158	0.0299764
1170	0.0147326
1182	0.0191012
1194	0.0266766
1206	0.0520985
1218	0.114328
1230	0.0690618
1242	0.056653
1254	0.108798
1266	0.165219
1278	0.0887672
1290	0.081796
1302	0.0518661
1314	0.0416881
1326	0.0686901
1338	0.212437
1350	0.134034
1362	0.066924
1374	0.0889996
1386	0.0949019
1398	0.0668311
1410	0.0376912
1422	0.0436865
1434	0.0596274
1446	0.100154
1458	0.122648
1470	0.0885814
1482	0.207836
1494	0.46475
1506	0.303249
1518	0.131664
1530	0.0816101
1542	0.078171
1554	0.0896038
1566	0.0570713
1578	0.120231
1590	0.0684112
1602	0.0658551
1614	0.0816101
1626	0.0237952
1638	0.0160339
1650	0.0128271
1662	0.0116652
1674	0.0122229
1686	0.0121765
1698	0.0150579
1710	0.024074
1722	0.0402938
1734	0.167868
1746	0.0972257
1758	0.0288145
1770	0.0238882
1782	0.0159409
1794	0.0145931
1806	0.0116652
1818	0.00752895
1830	0.00618117
1842	0.0048334
1854	0.00343915
1866	0.003718
1878	0.00292793
1890	0.00348563
1902	0.00362505
1914	0.00376447
1926	0.00395037
1938	0.003718
1950	0.00320677
1962	0.0026026
1974	0.00213785
1986	0.0022308
1998	0.00213785
2010	0.00232375
2022	0.00213785
2034	0.0020449
2046	0.00232375
2058	0.00237023
2070	0.00255612
2082	0.00250965
2094	0.00283497
2106	0.00288145
2118	0.0027885
2130	0.00269555
2142	0.0026026
2154	0.00320677
2166	0.00362505
2178	0.00288145
2190	0.00255612
2202	0.00227728
2214	0.0026026
2226	0.00232375
2238	0.00218432
2250	0.00213785
2262	0.00218432
2274	0.00190548
2286	0.00264907
2298	0.00343915
2310	0.00460102
2322	0.0053911
2334	0.00436865
2346	0.0039039
2358	0.00381095
2370	0.00190548
2382	0.00376447
2394	0.00292793
2406	0.00329972
2418	0.00381095
2430	0.00348563
2442	0.00357857
2454	0.00306735
2466	0.00255612
2478	0.00264907
2490	0.00274202
2502	0.00274202
2514	0.0024167
2526	0.00237023
2538	0.00306735
2550	0.00325325
2562	0.00292793
2574	0.00274202
2586	0.00274202
2598	0.00274202
2610	0.00269555
2622	0.00255612
2634	0.00288145
2646	0.00250965
2658	0.00288145
2670	0.00320677
2682	0.00348563
2694	0.00325325
2706	0.0033462
2718	0.00306735
2730	0.00325325
2742	0.00311382
2754	0.00362505
2766	0.00376447
2778	0.00413628
2790	0.00404332
2802	0.00367152
2814	0.00399685
2826	0.00455455
2838	0.00515872
2850	0.00487987
2862	0.00506577
2874	0.00553052
2886	0.0057629
2898	0.00474045
2910	0.0048334
2922	0.00562348
2934	0.00664592
2946	0.0072501
2958	0.00543758
2970	0.00534462
2982	0.00506577
2994	0.00487987
3006	0.0046475
3018	0.0048334
3030	0.00534462
3042	0.0057629
3054	0.005577
3066	0.00590232
3078	0.00590232
3090	0.00618117
3102	0.0083655
3114	0.00869082
3126	0.0107822
3138	0.00529815
3150	0.00362505
3162	0.00367152
3174	0.003718
3186	0.0035321
3198	0.00283497
3210	0.00292793
3222	0.00339267
3234	0.00348563
3246	0.00320677
3258	0.0033462
3270	0.00339267
3282	0.0039039
3294	0.0035321
3306	0.00413628
3318	0.00497283
3330	0.0063206
3342	0.00827255
3354	0.0106428
3366	0.019473
3378	0.0372729
3390	0.0493564
3402	0.0460102
3414	0.0304876
3426	0.0162198
3438	0.0091091
3450	0.0066924
3462	0.00497283
3474	0.00357857
3486	0.00306735
3498	0.00329972
3510	0.00250965
3522	0.00246317
3534	0.00250965
3546	0.00264907
3558	0.00306735
3570	0.00325325
3582	0.00343915
3594	0.00292793
3606	0.00274202
3618	0.00255612
3630	0.00311382
3642	0.00227728
3654	0.00227728
3666	0.00311382
3678	0.00348563
3690	0.00264907
3702	0.00283497
3714	0.0027885
3726	0.00329972
3738	0.00218432
3750	0.0027885
3762	0.0024167
3774	0.00250965
3786	0.00250965
3798	0.0024167
3810	0.00255612
3822	0.00190548
3834	0.00264907
3846	0.00264907
3858	0.00246317
3870	0.0022308
3882	0.00348563
3894	0.00306735
3906	0.0026026
3918	0.00306735
3930	0.00283497
3942	0.0031603
3954	0.0033462
3966	0.00362505
