Infrared Spectrum: Quinoline, 2-methyl-8-nitro-
Formula: C 10 H 8 N 2 O 2
CAS: 881-07-2
Origin: Sadtler Research Labs Under US-EPA Contract
1/CM	ABSORBANCE
450	0.0217384
462	0.0211949
474	0.0125539
486	0.00842363
498	0.00320641
510	0.000923882
522	0.00461941
534	0.000597806
546	0.00304338
558	0.00233688
570	0.00255426
582	0.00206515
594	0.00663021
606	0.00358684
618	0.00385857
630	0.00407595
642	0.0107605
654	0.0755409
666	0.0391291
678	0.00717367
690	0.0135865
702	0.0208689
714	0.0157603
726	0.0236405
738	0.0226623
750	0.0811386
762	0.0946164
774	0.0175538
786	0.0582589
798	0.137984
810	0.0410856
822	0.0433138
834	0.114561
846	0.047281
858	0.0351619
870	0.0521722
882	0.0125539
894	0.015706
906	0.00951055
918	0.00429333
930	0.00385857
942	0.00429333
954	0.0061411
966	0.010217
978	0.0114127
990	0.0134235
1002	0.0166842
1014	0.0280425
1026	0.0440746
1038	0.0341836
1050	0.022771
1062	0.0251622
1074	0.0250535
1086	0.0271187
1098	0.0226079
1110	0.0174994
1122	0.0167386
1134	0.0355423
1146	0.032988
1158	0.0145647
1170	0.0129343
1182	0.0134778
1194	0.0214667
1206	0.0489114
1218	0.0402704
1230	0.0180429
1242	0.0421725
1254	0.0317924
1266	0.0299446
1278	0.0232601
1290	0.0264122
1302	0.0507592
1314	0.0913556
1326	0.0602697
1338	0.0710302
1350	0.120322
1362	0.16369
1374	0.156408
1386	0.116953
1398	0.0407595
1410	0.0348901
1422	0.0547264
1434	0.0754866
1446	0.0477701
1458	0.0397813
1470	0.0397269
1482	0.0491288
1494	0.0998336
1506	0.124344
1518	0.14668
1530	0.188635
1542	0.259448
1554	0.54346
1566	0.260643
1578	0.0888557
1590	0.0995075
1602	0.136408
1614	0.0966815
1626	0.0753779
1638	0.0319011
1650	0.00483679
1662	0.00766279
1674	0.00657587
1686	0.00467376
1698	0.00499983
1710	0.00570633
1722	0.00722802
1734	0.00635848
1746	0.00461941
1758	0.0047281
1770	0.00364118
1782	0.00173907
1794	0.00304338
1806	0.00538025
1818	0.0047281
1830	0.00168473
1842	0.00108692
1854	0.00222819
1866	0.00505418
1878	0.00451072
1890	0.00244557
1902	0.00206515
1914	0.0040216
1926	0.00831494
1938	0.00706498
1950	0.00320641
1962	0.00173907
1974	0.00103257
1986	0.000869536
1998	0.000869536
2010	0.000978228
2022	0.000326076
2034	0.000652152
2046	0.00054346
2058	0.00081519
2070	0.00173907
2082	0.00195646
2094	0.001413
2106	0.00135865
2118	0.0013043
2130	0.000923882
2142	0.000760844
2154	0.000978228
2166	0.000978228
2178	0.00152169
2190	0.00119561
2202	0.001413
2214	0.0013043
2226	0.000923882
2238	0.000923882
2250	0.000978228
2262	0.00152169
2274	0.00336945
2286	0.00505418
2298	0.00864101
2310	0.0123365
2322	0.00961924
2334	0.00336945
2346	0.00695629
2358	0.00668456
2370	0.00364118
2382	0.00831494
2394	0.00190211
2406	0.00168473
2418	0.00173907
2430	0.00157603
2442	0.00146734
2454	0.00184776
2466	0.00135865
2478	0.000978228
2490	0.00119561
2502	0.000652152
2514	0.000652152
2526	0.000706498
2538	0.000706498
2550	0.000869536
2562	0.000869536
2574	0.00119561
2586	0.00168473
2598	0.00135865
2610	0.00108692
2622	0.00163038
2634	0.00152169
2646	0.00152169
2658	0.00163038
2670	0.00152169
2682	0.00173907
2694	0.00206515
2706	0.00211949
2718	0.00266295
2730	0.00298903
2742	0.00304338
2754	0.00288034
2766	0.0027173
2778	0.00282599
2790	0.00288034
2802	0.00293468
2814	0.00347814
2826	0.00456506
2838	0.00570633
2850	0.00836928
2862	0.0107062
2874	0.0111409
2886	0.0119561
2898	0.0136408
2910	0.0164125
2922	0.0217384
2934	0.0344554
2946	0.0241296
2958	0.0179342
2970	0.0172277
2982	0.0101627
2994	0.00869536
3006	0.0121192
3018	0.0179885
3030	0.0194015
3042	0.0208689
3054	0.0415747
3066	0.0646174
3078	0.0403247
3090	0.0148365
3102	0.00896709
3114	0.00706498
3126	0.00391291
3138	0.00228253
3150	0.0020108
3162	0.00190211
3174	0.000978228
3186	0.00103257
3198	0.000978228
3210	0.00103257
3222	0.00114127
3234	0.00081519
3246	0.000923882
3258	0.000760844
3270	0.000652152
3282	0.000652152
3294	0.000434768
3306	0.000217384
3318	0.000380422
3330	0.000597806
3342	0.00081519
3354	0.001413
3366	0.00206515
3378	0.00195646
3390	0.00211949
3402	0.00195646
3414	0.00184776
3426	0.00157603
3438	0.00119561
3450	0.00114127
3462	0.00152169
3474	0.00119561
3486	0.00081519
3498	0.00081519
3510	0.001413
3522	0.001413
3534	0.00119561
3546	0.00222819
3558	0.00249992
3570	0.00239122
3582	0.00206515
3594	0.00152169
3606	0.00135865
3618	0.00228253
3630	0.0027173
3642	0.00173907
3654	0.000760844
3666	0.00249992
3678	0.00244557
3690	0.00217384
3702	0.00206515
3714	0.00260861
3726	0.00315207
3738	0.0041303
3750	0.00239122
3762	0.00233688
3774	0.00423899
3786	0.00293468
3798	0.00282599
3810	0.00222819
3822	0.00211949
3834	0.00298903
3846	0.00217384
3858	0.00391291
3870	0.00347814
3882	0.00358684
3894	0.00385857
3906	0.00429333
3918	0.00565198
3930	0.00407595
3942	0.00570633
3954	0.00576068
3966	0.00423899
