Infrared Spectrum: Benzaldehyde, 4-(acetyloxy)-3-methoxy-
Formula: C 10 H 10 O 4
CAS: 881-68-5
Origin: Sadtler Research Labs Under US-EPA Contract
1/CM	ABSORBANCE
450	0.00979739
462	0.0162548
474	0.0125807
486	0.0131374
498	0.00846138
510	0.00757071
522	0.0160321
534	0.0254955
546	0.0211535
558	0.0120241
570	0.00957472
582	0.0167001
594	0.0259408
606	0.0234915
618	0.0185928
630	0.0116901
642	0.0120241
654	0.0344022
666	0.062347
678	0.0174794
690	0
702	0.00100201
714	0.0131374
726	0.0775998
738	0.106658
750	0.0349589
762	0.0253842
774	0.059341
786	0.0485416
798	0.0179248
810	0.0125807
822	0.0398576
834	0.0428636
846	0.0164774
858	0.0188154
870	0.0372969
882	0.061011
894	0.107437
906	0.0572257
918	0.0195948
930	0.0311735
942	0.0262748
954	0.0281675
966	0.0159208
978	0.0185928
990	0.0414162
1002	0.0968606
1014	0.115899
1026	0.109553
1038	0.145959
1050	0.0752618
1062	0.0426409
1074	0.0502116
1086	0.049655
1098	0.0710311
1110	0.216099
1122	0.310288
1134	0.200401
1146	0.460923
1158	0.291138
1170	0.259408
1182	0.607216
1194	1.11334
1206	0.66767
1218	0.188822
1230	0.0932979
1242	0.102205
1254	0.214652
1266	0.47573
1278	0.616902
1290	0.280339
1302	0.126364
1314	0.0955246
1326	0.0538857
1338	0.0233801
1350	0.0272768
1362	0.0887332
1374	0.241929
1386	0.211535
1398	0.0852818
1410	0.0808285
1422	0.175351
1434	0.0954132
1446	0.051659
1458	0.0791585
1470	0.107437
1482	0.0802718
1494	0.174015
1506	0.290025
1518	0.104877
1530	0.0303942
1542	0.0148074
1554	0.0163661
1566	0.0262748
1578	0.0608997
1590	0.146627
1602	0.18359
1614	0.0774885
1626	0.0183701
1638	0.00879539
1650	0.0103541
1662	0.0175908
1674	0.0273882
1686	0.047985
1698	0.0788245
1710	0.288021
1722	0.708084
1734	0.185037
1746	0.0565577
1758	0.0674684
1770	0.126253
1782	0.281675
1794	0.383768
1806	0.261524
1818	0.0841685
1830	0.0359609
1842	0.0239368
1854	0.0181474
1866	0.0149188
1878	0.0110221
1890	0.00656871
1902	0.00745938
1914	0.0062347
1926	0.00501003
1938	0.00411936
1950	0.00445336
1962	0.00634604
1974	0.00857272
1986	0.0100201
1998	0.00890672
2010	0.00768205
2022	0.00679137
2034	0.00779338
2046	0.00801605
2058	0.00823872
2070	0.00879539
2082	0.00968606
2094	0.00901805
2106	0.00745938
2118	0.00545537
2130	0.00567803
2142	0.00512136
2154	0.00578937
2166	0.00612337
2178	0.00411936
2190	0.00278335
2202	0.00289468
2214	0.00278335
2226	0.00278335
2238	0.00289468
2250	0.00200401
2262	0.00222668
2274	0.00256068
2286	0.00322869
2298	0.00456469
2310	0.00423069
2322	0.00311735
2334	0.00133601
2346	0.000890672
2358	0.00167001
2370	0.000668004
2382	0.00645737
2394	0.00311735
2406	0.00244935
2418	0.00222668
2430	0.000779338
2442	0.000779338
2454	0.00100201
2466	0.00111334
2478	0.000445336
2490	0.000222668
2502	0.00055667
2514	0.00155868
2526	0.00256068
2538	0.00334002
2550	0.00400802
2562	0.00400802
2574	0.00411936
2586	0.00456469
2598	0.0048987
2610	0.00534403
2622	0.00601204
2634	0.0062347
2646	0.00690271
2658	0.00701404
2670	0.00645737
2682	0.00790471
2694	0.0156981
2706	0.0448676
2718	0.0782678
2730	0.0823872
2742	0.0381876
2754	0.0218215
2766	0.0274995
2778	0.0368516
2790	0.0482076
2802	0.0700291
2814	0.0939659
2826	0.0755958
2838	0.0454243
2850	0.0439769
2862	0.0337342
2874	0.0234915
2886	0.0244935
2898	0.0223781
2910	0.0232688
2922	0.0312849
2934	0.0378536
2946	0.0681364
2958	0.0705858
2970	0.0545537
2982	0.0369629
2994	0.0287242
3006	0.0420843
3018	0.0562237
3030	0.0286128
3042	0.0233801
3054	0.0237141
3066	0.0259408
3078	0.0268315
3090	0.0154754
3102	0.0106881
3114	0.00790471
3126	0.0048987
3138	0.00423069
3150	0.00300602
3162	0.00244935
3174	0.00233801
3186	0.00222668
3198	0.00222668
3210	0.00144734
3222	0.00178134
3234	0.00133601
3246	0.00122467
3258	0.00167001
3270	0.00167001
3282	0.00133601
3294	0.00167001
3306	0.00167001
3318	0.00144734
3330	0.00178134
3342	0.00200401
3354	0.00155868
3366	0.00233801
3378	0.00267202
3390	0.00367402
3402	0.00645737
3414	0.00890672
3426	0.00801605
3438	0.00334002
3450	0.00189268
3462	0.00189268
3474	0.00144734
3486	0.00178134
3498	0.00122467
3510	0.00233801
3522	0.00155868
3534	0.00244935
3546	0.0052327
3558	0.0111334
3570	0.0192608
3582	0.0210421
3594	0.00935206
3606	0.00456469
3618	0.00289468
3630	0.00200401
3642	0.00200401
3654	0.00211535
3666	0.00189268
3678	0.000668004
3690	0.00222668
3702	0.00222668
3714	0.00233801
3726	0.00211535
3738	0.00244935
3750	0.00278335
3762	0.00289468
3774	0.00178134
3786	0.00167001
3798	0.00155868
3810	0.00211535
3822	0.00178134
3834	0.00144734
3846	0.00167001
3858	0.00289468
3870	0.00289468
3882	0.00233801
3894	0.00144734
3906	0.00222668
3918	0.00233801
3930	0.00334002
3942	0.00256068
3954	0.00200401
3966	0.00222668
