Infrared Spectrum: Disulfide, diphenyl
Formula: C 12 H 10 S 2
CAS: 882-33-7
Origin: Sadtler Research Labs Under US-EPA Contract
1/CM	ABSORBANCE
450	0.00350712
462	0.0332038
474	0.0740594
486	0.068366
498	0.0531533
510	0.0331127
522	0.0212704
534	0.0178089
546	0.0115689
558	0.00906385
570	0.00806182
582	0.00446361
594	0.000364376
606	0.00464579
618	0.00542009
630	0.00792518
642	0.0102025
654	0.0292412
666	0.0695503
678	0.177633
690	0.314456
702	0.205371
714	0.11118
726	0.215528
738	0.452919
750	0.280752
762	0.0912306
774	0.0272371
786	0.00956487
798	0.0037804
810	0.00441806
822	0.00473689
834	0.00792518
846	0.00819846
858	0.00651322
870	0.00733307
882	0.00828955
894	0.0110224
906	0.0148483
918	0.0119333
930	0.00774299
942	0.00746971
954	0.00560228
966	0.00487353
978	0.00614885
990	0.0103392
1002	0.0363921
1014	0.0375307
1026	0.154086
1038	0.0175811
1050	0.0243221
1062	0.0444083
1074	0.0576625
1086	0.0337048
1098	0.0240488
1110	0.01749
1122	0.00874502
1134	0.0038715
1146	0.00473689
1158	0.00715088
1170	0.0147572
1182	0.032475
1194	0.00674096
1206	0.00514681
1218	0.00851729
1230	0.00965596
1242	0.00555673
1254	0.00642213
1266	0.00710533
1278	0.00924604
1290	0.0180366
1302	0.0228646
1314	0.0179455
1326	0.0163514
1338	0.00951932
1350	0.00760635
1362	0.0121155
1374	0.0124343
1386	0.0107946
1398	0.00851729
1410	0.0103392
1422	0.0362554
1434	0.0892721
1446	0.102891
1458	0.0715999
1470	0.161737
1482	0.257614
1494	0.0493729
1506	0.0240488
1518	0.0144839
1530	0.0107035
1542	0.0147572
1554	0.0258707
1566	0.0697325
1578	0.195761
1590	0.137734
1602	0.0411289
1614	0.0193575
1626	0.0123888
1638	0.0160325
1650	0.014985
1662	0.00874502
1674	0.00692314
1686	0.00664986
1698	0.00728752
1710	0.0091094
1722	0.0124799
1734	0.0125254
1746	0.0115234
1758	0.01166
1770	0.0157593
1782	0.0233656
1794	0.0267361
1806	0.0138918
1818	0.0091094
1830	0.00614885
1842	0.00920049
1854	0.0149394
1866	0.0200407
1878	0.0234567
1890	0.0132086
1902	0.0060122
1914	0.00819846
1926	0.014575
1938	0.0209516
1950	0.0256885
1962	0.0158504
1974	0.00446361
1986	0.00273282
1998	0.00168524
2010	0.000819846
2022	0.0015486
2034	0.00100203
2046	0.00159415
2058	0.00191297
2070	0.00173079
2082	0.00168524
2094	0.00141196
2106	0.00127532
2118	0.00122977
2130	0.00113868
2142	0.00104758
2154	0.00195852
2166	0.00163969
2178	0.00159415
2190	0.00104758
2202	0.000728752
2214	0.000774299
2226	0.00113868
2238	0.00163969
2250	0.00218626
2262	0.00186743
2274	0.00259618
2286	0.00227735
2298	0.0030972
2310	0.00660432
2322	0.00715088
2334	0.00505572
2346	0.005329
2358	0.00268727
2370	0.00245954
2382	0.00396259
2394	0.00291501
2406	0.00227735
2418	0.00204962
2430	0.00173079
2442	0.00091094
2454	0.000865393
2466	0.00122977
2478	0.000819846
2490	0.000774299
2502	0.000956487
2514	0.000865393
2526	0.00163969
2538	0.00204962
2550	0.00168524
2562	0.00245954
2574	0.00318829
2586	0.00323384
2598	0.00396259
2610	0.00364376
2622	0.00264173
2634	0.0030061
2646	0.00332493
2658	0.00396259
2670	0.00241399
2682	0.00182188
2694	0.00104758
2706	0.00104758
2718	9.1094e-05
2730	0.000501017
2742	0.000865393
2754	0.000273282
2766	0.000546564
2778	0.000318829
2790	0.000546564
2802	0.000728752
2814	0.00136641
2826	0.00173079
2838	0.00241399
2850	0.0023229
2862	0.00245954
2874	0.00396259
2886	0.00337048
2898	0.00291501
2910	0.0045547
2922	0.00432697
2934	0.00441806
2946	0.00469134
2958	0.0038715
2970	0.00491908
2982	0.00865393
2994	0.0185832
3006	0.0357544
3018	0.0568427
3030	0.0574348
3042	0.0462302
3054	0.0950566
3066	0.324112
3078	0.317463
3090	0.172486
3102	0.045046
3114	0.0135275
3126	0.00705979
3138	0.00901831
3150	0.0117511
3162	0.00674096
3174	0.00327938
3186	0.00195852
3198	0.00104758
3210	0.00113868
3222	0.000956487
3234	0.00113868
3246	0.000728752
3258	0.000592111
3270	0.000956487
3282	0.00100203
3294	0.000273282
3306	0.000865393
3318	0.000501017
3330	0.000136641
3342	0.000364376
3354	0.00109313
3366	0.000637658
3378	0.00113868
3390	0.00163969
3402	0.00159415
3414	0.00182188
3426	0.00127532
3438	0.00091094
3450	0.00236844
3462	0.00241399
3474	0.00132086
3486	0.00104758
3498	0.000956487
3510	0.000364376
3522	0.00113868
3534	0.000364376
3546	0.00113868
3558	0.00122977
3570	0.000774299
3582	0.00091094
3594	0.00100203
3606	4.5547e-05
3618	0.00118422
3630	0.00182188
3642	0.00173079
3654	0.00118422
3666	0.000865393
3678	0.00273282
3690	0.00542009
3702	0.0030972
3714	0.00264173
3726	0.00255063
3738	0.00168524
3750	0.00241399
3762	0.00323384
3774	0.00409923
3786	0.00273282
3798	0.00163969
3810	0.00109313
3822	0.00373485
3834	0.00218626
3846	0.000728752
3858	0.000227735
3870	0.000501017
3882	0.00286946
3894	0.000819846
3906	0.000409923
3918	0.000865393
3930	0.000409923
3942	0.000637658
3954	0.000318829
3966	0.00259618
