Infrared Spectrum: Benzene, 1,1'-(1,3-butadiyne-1,4-diyl)bis-
Formula: C 16 H 10
CAS: 886-66-8
Origin: Sadtler Research Labs Under US-EPA Contract
1/CM	ABSORBANCE
450	0.0243434
462	0.0712173
474	0.0606642
486	0.0288106
498	0.048622
510	0.0442842
522	0.140687
534	0.0584629
546	0.0334721
558	0.0503701
570	0.0134665
582	0.0114595
594	0.0223363
606	0.0290696
618	0.020653
630	0.037292
642	0.0314651
654	0.0646135
666	0.12463
678	0.240973
690	0.419988
702	0.168656
714	0.0683686
726	0.067268
738	0.175648
750	0.617583
762	0.328959
774	0.0822884
786	0.0214947
798	0.0113948
810	0.00776916
822	0.0177396
834	0.0216889
846	0.020653
858	0.0124307
870	0.0148909
882	0.0143082
894	0.016121
906	0.0397522
918	0.0442195
930	0.0194229
942	0.00899928
954	0.00498521
966	0.00369035
978	0.00673327
990	0.00835185
1002	0.0316593
1014	0.0217536
1026	0.134083
1038	0.0159915
1050	0.0249908
1062	0.0471329
1074	0.0284222
1086	0.0146967
1098	0.0150851
1110	0.00407881
1122	0.000906402
1134	0.00246023
1146	0.00543841
1158	0.0120422
1170	0.0122364
1182	0.0132723
1194	0.0306882
1206	0.0290049
1218	0.00686276
1230	0.0190344
1242	0.0108121
1254	0.00569738
1266	0.0119775
1278	0.0150204
1290	0.00640956
1302	0.00278395
1314	0.00369035
1326	0.00997042
1338	0.00621533
1350	0.00414355
1362	0.00951722
1374	0.00971145
1386	0.00861082
1398	0.0046615
1410	0.00589161
1422	0.0181928
1434	0.0546431
1446	0.0762025
1458	0.0263504
1470	0.0249908
1482	0.252433
1494	0.159203
1506	0.045838
1518	0.0179986
1530	0.0159268
1542	0.00984094
1554	0.00906402
1566	0.0258325
1578	0.0375509
1590	0.152535
1602	0.087662
1614	0.0082871
1626	0.00537367
1638	0.0060211
1650	0.0105531
1662	0.0284222
1674	0.0185165
1686	0.00718647
1698	0.00660379
1710	0.00550316
1722	0.0104884
1734	0.0218184
1746	0.0200056
1758	0.0140492
1770	0.0117832
1782	0.0205883
1794	0.034767
1806	0.0196819
1818	0.020912
1830	0.0140492
1842	0.00686276
1854	0.00822236
1866	0.0178691
1878	0.0260267
1890	0.0346375
1902	0.0116537
1914	0.00712173
1926	0.0146319
1938	0.0233075
1950	0.0304292
1962	0.0374215
1974	0.00822236
1986	0.00246023
1998	0.00116537
2010	0.000388458
2022	0
2034	0.000194229
2046	0.000323715
2058	0.000971145
2070	0.00103589
2082	0.00110063
2094	0.0018128
2106	0.00129486
2118	0.00207178
2130	0.00407881
2142	0.00997042
2154	0.00550316
2166	0.00369035
2178	0.00563264
2190	0.00880505
2202	0.0146967
2214	0.0154736
2226	0.0078339
2238	0.0069275
2250	0.00563264
2262	0.00369035
2274	0.00394932
2286	0.00258972
2298	0.00252498
2310	0.00537367
2322	0.011848
2334	0.00899928
2346	0.00472624
2358	0.00699224
2370	0.00381984
2382	0.0018128
2394	0.00064743
2406	0.000841659
2418	0.000906402
2430	0.00110063
2442	0.00064743
2454	0.000841659
2466	0.000971145
2478	0.00110063
2490	0.0013596
2502	0.00284869
2514	0.00233075
2526	0.00129486
2538	0.00213652
2550	0.00110063
2562	0.00187755
2574	0.00213652
2586	0.00401407
2598	0.00563264
2610	0.00265446
2622	0.00239549
2634	0.00239549
2646	0.00226601
2658	0.00375509
2670	0.00640956
2682	0.00899928
2694	0.00608584
2706	0.00297818
2718	0.00155383
2730	0.00142435
2742	0.00194229
2754	0.00194229
2766	0.00336664
2778	0.00323715
2790	0.0046615
2802	0.00388458
2814	0.00258972
2826	0.00336664
2838	0.00349612
2850	0.00433778
2862	0.00563264
2874	0.00666853
2886	0.00744545
2898	0.00498521
2910	0.00634481
2922	0.0111358
2934	0.0116537
2946	0.00854608
2958	0.00971145
2970	0.0137255
2982	0.0148261
2994	0.0178043
3006	0.0308177
3018	0.0547078
3030	0.0806698
3042	0.125019
3054	0.122882
3066	0.234046
3078	0.225888
3090	0.137579
3102	0.110063
3114	0.0425362
3126	0.0156031
3138	0.0155383
3150	0.0119775
3162	0.00621533
3174	0.00433778
3186	0.00375509
3198	0.00284869
3210	0.00246023
3222	0.00239549
3234	0.00213652
3246	0.0018128
3258	0.00194229
3270	0.00168332
3282	0.000971145
3294	0.0018128
3306	0.00129486
3318	0.00123012
3330	0.0013596
3342	0.00142435
3354	0.0013596
3366	0.00174806
3378	0.00155383
3390	0.00239549
3402	0.0018128
3414	0.00213652
3426	0.00200703
3438	0.00207178
3450	0.00155383
3462	0.00304292
3474	0.00297818
3486	0.00414355
3498	0.00304292
3510	0.00155383
3522	0.00187755
3534	0.00213652
3546	0.00161857
3558	0.0018128
3570	0.00116537
3582	0.00116537
3594	0.00213652
3606	0.00174806
3618	0.00174806
3630	0.00304292
3642	0.00414355
3654	0.00420829
3666	0.00336664
3678	0.00330189
3690	0.00310766
3702	0.0046615
3714	0.00453201
3726	0.00530893
3738	0.00517944
3750	0.00246023
3762	0.00291343
3774	0.00155383
3786	0.00207178
3798	0.00213652
3810	0.0018128
3822	0.00336664
3834	0.00161857
3846	0.00233075
3858	0.00278395
3870	0.00148909
3882	0.00064743
3894	0.00239549
3906	0.00304292
3918	0.00174806
3930	0.00200703
3942	0.00161857
3954	0.00207178
3966	0.00323715
