Infrared Spectrum: Furan, tetrahydro-2,2-diphenyl-
Formula: C 16 H 16 O
CAS: 887-15-0
Origin: Sadtler Research Labs Under US-EPA Contract
1/CM	ABSORBANCE
450	0.00609866
462	0.00682602
474	0.00195829
486	0.0029654
498	0.00234994
510	0.0111342
522	0.0428025
534	0.0282553
546	0.00800099
558	0.0029654
570	0.00201424
582	0.00794504
594	0.0268565
606	0.0345777
618	0.031948
630	0.0286469
642	0.0229399
654	0.0266327
666	0.0438656
678	0.0683721
690	0.202487
702	0.38858
714	0.142787
726	0.0815766
738	0.0925989
750	0.160188
762	0.145529
774	0.0754779
786	0.0162817
798	0.0101831
810	0.01147
822	0.00923192
834	0.00967952
846	0.0130925
858	0.019359
870	0.0214852
882	0.0194709
894	0.0257375
906	0.0537689
918	0.053713
930	0.0528737
942	0.0382145
954	0.0482298
966	0.038774
978	0.0383264
990	0.0461036
1002	0.0362562
1014	0.0408442
1026	0.134842
1038	0.17591
1050	0.359597
1062	0.523981
1074	0.152355
1086	0.0724565
1098	0.0451525
1110	0.0328432
1122	0.0225483
1134	0.0135401
1146	0.0133723
1158	0.0199745
1170	0.0303814
1182	0.0757577
1194	0.0459358
1206	0.0521463
1218	0.0751981
1230	0.0731839
1242	0.0637841
1254	0.0539368
1266	0.0383264
1278	0.0297659
1290	0.0351372
1302	0.0449846
1314	0.0406764
1326	0.0294862
1338	0.0152746
1350	0.00850455
1362	0.00744148
1374	0.0083367
1386	0.00704983
1398	0.00542725
1410	0.00637841
1422	0.0131485
1434	0.0274719
1446	0.0862764
1458	0.0878431
1470	0.0585247
1482	0.0706661
1494	0.119735
1506	0.0354729
1518	0.0120854
1530	0.00766529
1542	0.00727363
1554	0.00408442
1566	0.00520344
1578	0.0138758
1590	0.0401728
1602	0.0525939
1614	0.0168413
1626	0.00621056
1638	0.0029654
1650	0.00402847
1662	0.00514749
1674	0.00503559
1686	0.0030773
1698	0.00229399
1710	0.00207019
1722	0.00290945
1734	0.00509154
1746	0.00654627
1758	0.00447608
1770	0.00475583
1782	0.00693792
1794	0.0181841
1806	0.0204781
1818	0.00967952
1830	0.00374872
1842	0.00257375
1854	0.00414037
1866	0.0101271
1878	0.0143794
1890	0.0124211
1902	0.00503559
1914	0.00436418
1926	0.00671412
1938	0.0160579
1950	0.0195828
1962	0.0139318
1974	0.00341301
1986	0.00324516
1998	0.00318921
2010	0.00453203
2022	0.0029654
2034	0.00111902
2046	0.000727363
2058	0.00055951
2070	0.000335706
2082	0.00055951
2094	0.000839265
2106	0.000951167
2118	0.00100712
2130	0.00055951
2142	0.000279755
2154	0.000279755
2166	0.000279755
2178	0.00055951
2190	0.000727363
2202	0.000503559
2214	0.000615461
2226	0.000447608
2238	0.00055951
2250	0.000447608
2262	0.00117497
2274	0.00201424
2286	0.00207019
2298	0.0025178
2310	0.00425228
2322	0.00414037
2334	0.00223804
2346	0.00341301
2358	0.00246184
2370	0.0025178
2382	0.00240589
2394	0.000839265
2406	0.000503559
2418	5.5951e-05
2430	0.000503559
2442	0.00055951
2454	0.000447608
2466	0.000279755
2478	5.5951e-05
2490	0.000615461
2502	0.000335706
2514	0.000503559
2526	0.000727363
2538	0.000951167
2550	0.00111902
2562	0.00128687
2574	0.00134282
2586	0.00223804
2598	0.00207019
2610	0.00190233
2622	0.00184638
2634	0.00234994
2646	0.00240589
2658	0.00240589
2670	0.0029654
2682	0.0058189
2694	0.00665817
2706	0.00318921
2718	0.00240589
2730	0.00246184
2742	0.00346896
2754	0.00442013
2766	0.00531534
2778	0.0055951
2790	0.00671412
2802	0.00895216
2814	0.012589
2826	0.0181281
2838	0.0273041
2850	0.0392776
2862	0.0650151
2874	0.128016
2886	0.182176
2898	0.129023
2910	0.09825
2922	0.0952846
2934	0.10502
2946	0.118504
2958	0.146088
2970	0.204445
2982	0.272034
2994	0.197731
3006	0.0734077
3018	0.073072
3030	0.136353
3042	0.156327
3054	0.117105
3066	0.247303
3078	0.218992
3090	0.133723
3102	0.0763172
3114	0.0359765
3126	0.0143794
3138	0.00744148
3150	0.00632246
3162	0.00671412
3174	0.00458798
3186	0.00223804
3198	0.00145473
3210	0.00134282
3222	0.00134282
3234	0.000895216
3246	0.000671412
3258	0.00106307
3270	0.000839265
3282	0.000727363
3294	0.00055951
3306	0.000447608
3318	0.000279755
3330	0.000783314
3342	0.000671412
3354	0.000671412
3366	0.000951167
3378	0.000783314
3390	0.000783314
3402	0.000671412
3414	0.000783314
3426	0.00106307
3438	0.000839265
3450	0.000615461
3462	0.000951167
3474	0.00100712
3486	0.000391657
3498	0.000391657
3510	0.000503559
3522	0.000951167
3534	0.000503559
3546	0.00100712
3558	0.000503559
3570	0.00111902
3582	0.000391657
3594	0.00055951
3606	0.000615461
3618	0.00100712
3630	0.000951167
3642	0.00156663
3654	0.00184638
3666	0.00156663
3678	0.00184638
3690	0.00212614
3702	0.00212614
3714	0.00156663
3726	0.00162258
3738	0.00190233
3750	0.000503559
3762	0.000615461
3774	0.00055951
3786	0
3798	5.5951e-05
3810	5.5951e-05
3822	5.5951e-05
3834	0.000335706
3846	5.5951e-05
3858	0.000671412
3870	5.5951e-05
3882	5.5951e-05
3894	0.000279755
3906	5.5951e-05
3918	5.5951e-05
3930	0.000111902
3942	0.000391657
3954	5.5951e-05
3966	5.5951e-05
