Infrared Spectrum: Benzoic acid, 5-bromo-2-hydroxy-
Formula: C 7 H 5 Br O 3
CAS: 89-55-4
Origin: Sadtler Research Labs Under US-EPA Contract
1/CM	ABSORBANCE
450	0
462	0.000202928
474	0.00294246
486	0.00563125
498	0.00862444
510	0.00735614
522	0.0260762
534	0.0446442
546	0.042412
558	0.0604218
570	0.100145
582	0.0545369
594	0.0205972
606	0.017046
618	0.0397232
630	0.0679301
642	0.0283085
654	0.054334
666	0.125663
678	0.0519496
690	0.0547398
702	0.0602189
714	0.0248587
726	0.0129874
738	0.0254675
750	0.0368822
762	0.0477388
774	0.0174518
786	0.0277504
798	0.0256704
810	0.0162342
822	0.0612843
834	0.0636687
846	0.0163357
858	0.0100449
870	0.00705175
882	0.0025366
894	0.00806639
906	0.00583418
918	0.0121757
930	0.00877664
942	0.0102479
954	0.0112625
966	0.00446442
978	0.00167416
990	0.00263806
1002	0.00329758
1014	0.0114654
1026	0.0116176
1038	0.0135454
1050	0.0212567
1062	0.0701116
1074	0.102124
1086	0.0955284
1098	0.0697058
1110	0.0679301
1122	0.0856863
1134	0.100094
1146	0.113589
1158	0.28415
1170	0.442129
1182	0.143115
1194	0.07762
1206	0.0690463
1218	0.0857371
1230	0.0906581
1242	0.0727497
1254	0.0981157
1266	0.0929918
1278	0.133932
1290	0.0844688
1302	0.080461
1314	0.0598638
1326	0.0498188
1338	0.0622989
1350	0.0768082
1362	0.0783302
1374	0.0645818
1386	0.0669662
1398	0.17188
1410	0.104204
1422	0.0539281
1434	0.0574794
1446	0.0498188
1458	0.0789897
1470	0.185831
1482	0.166502
1494	0.074779
1506	0.0292216
1518	0.0171474
1530	0.0152196
1542	0.0163357
1554	0.0137484
1566	0.0272431
1578	0.0456081
1590	0.0425134
1602	0.0511379
1614	0.0511886
1626	0.0235396
1638	0.0149152
1650	0.0171474
1662	0.017046
1674	0.0255689
1686	0.0460647
1698	0.0996376
1710	0.308501
1722	0.476678
1734	0.119677
1746	0.0470793
1758	0.0782795
1770	0.100399
1782	0.04713
1794	0.0285114
1806	0.0109074
1818	0.00532686
1830	0.00487027
1842	0.00410929
1854	0.00390636
1866	0.00339904
1878	0.00197855
1890	0.00304392
1902	0.00487027
1914	0.00451515
1926	0.00350051
1938	0.00202928
1950	0.0012683
1962	0.00106537
1974	0.00101464
1986	0.00106537
1998	0.0011161
2010	0.0011161
2022	0.0011161
2034	0.00157269
2046	0.000608784
2058	0.000608784
2070	0.000608784
2082	0.000608784
2094	0.000710248
2106	0.000405856
2118	0.00116684
2130	0.00121757
2142	0.00167416
2154	0.0011161
2166	0.00116684
2178	0.000710248
2190	0.000710248
2202	0.000355124
2214	0.00076098
2226	0.000710248
2238	0.00121757
2250	0.000811712
2262	0.00136976
2274	0.00258733
2286	0.00461661
2298	0.00918249
2310	0.0133425
2322	0.0132411
2334	0.0123786
2346	0.0141542
2358	0.0171474
2370	0.0129367
2382	0.00857371
2394	0.0012683
2406	0.000710248
2418	0.00116684
2430	0.00147123
2442	0.00187708
2454	0.00167416
2466	0.00218148
2478	0.00284099
2490	0.00177562
2502	0.00162342
2514	0.00218148
2526	0.00172489
2538	0.00218148
2550	0.00228294
2562	0.00273953
2574	0.0026888
2586	0.0026888
2598	0.00223221
2610	0.00172489
2622	0.00218148
2634	0.00218148
2646	0.00223221
2658	0.00218148
2670	0.00172489
2682	0.00172489
2694	0.00228294
2706	0.00192782
2718	0.00172489
2730	0.00273953
2742	0.00329758
2754	0.00263806
2766	0.00279026
2778	0.00223221
2790	0.0026888
2802	0.00329758
2814	0.00309465
2826	0.00370344
2838	0.00416002
2850	0.0038049
2862	0.0036527
2874	0.00405856
2886	0.00426149
2898	0.0036527
2910	0.00421076
2922	0.00385563
2934	0.00527613
2946	0.0052254
2958	0.00578345
2970	0.00679809
2982	0.00771126
2994	0.00664589
3006	0.00674736
3018	0.00684882
3030	0.0064937
3042	0.00720394
3054	0.0061893
3066	0.00933469
3078	0.0133425
3090	0.0123786
3102	0.00821858
3114	0.00766053
3126	0.00755907
3138	0.00766053
3150	0.00786346
3162	0.00771126
3174	0.00862444
3186	0.0102479
3198	0.0105523
3210	0.0135962
3222	0.0191767
3234	0.0281563
3246	0.0420568
3258	0.0565662
3270	0.0633643
3282	0.0606247
3294	0.0506305
3306	0.0435788
3318	0.0376939
3330	0.0320119
3342	0.0282577
3354	0.0260762
3366	0.0232353
3378	0.0201406
3390	0.0165894
3402	0.0150167
3414	0.0137991
3426	0.0126323
3438	0.0107045
3450	0.00847224
3462	0.00613857
3474	0.00639223
3486	0.00573272
3498	0.00613857
3510	0.00755907
3522	0.0117191
3534	0.0187201
3546	0.0156255
3558	0.0165894
3570	0.0727497
3582	0.200696
3594	0.0509857
3606	0.00497174
3618	0.00324685
3630	0.00573272
3642	0.00421076
3654	0.00720394
3666	0.00248587
3678	0.00233367
3690	0.00279026
3702	0.00116684
3714	0.00314538
3726	0.00263806
3738	0.00304392
3750	0.00309465
3762	0.000202928
3774	0.000202928
3786	0.000202928
3798	0.000202928
3810	0.00025366
3822	0.00223221
3834	0.0012683
3846	0.00136976
3858	0.00101464
3870	0.00116684
3882	0.00025366
3894	0.000202928
3906	0.000202928
3918	0.000202928
3930	0.00025366
3942	0.000202928
3954	0.000202928
3966	0.000202928
