Infrared Spectrum: Benzenamine, 4-methyl-2-nitro-
Formula: C 7 H 8 N 2 O 2
CAS: 89-62-3
Origin: Sadtler Research Labs Under US-EPA Contract
1/CM	ABSORBANCE
450	0.0124954
462	0.0473418
474	0.0586053
486	0.065117
498	0.0744446
510	0.0681089
522	0.0837722
534	0.109643
546	0.0918678
558	0.0561414
570	0.044702
582	0.0343184
594	0.0336145
606	0.0322065
618	0.0367823
630	0.0418861
642	0.0478698
654	0.0535016
666	0.0612452
678	0.0948597
690	0.0857081
702	0.0505097
714	0.0404782
726	0.0362544
738	0.0362544
750	0.0410061
762	0.0799004
774	0.106123
786	0.0818363
798	0.116683
810	0.286691
822	0.1818
834	0.0556135
846	0.0366063
858	0.0279827
870	0.0276307
882	0.0394222
894	0.0380143
906	0.0519176
918	0.0791964
930	0.0406542
942	0.0139034
954	0.00756766
966	0.00387182
978	0.00263988
990	0.00475178
1002	0.00774365
1014	0.00316786
1026	0.000351984
1038	0.00598373
1050	0.0154873
1062	0.0183032
1074	0.0193591
1086	0.0454059
1098	0.0723327
1110	0.0320305
1122	0.0066877
1134	0.00404782
1146	0.0154873
1158	0.133754
1170	0.187255
1182	0.0610692
1194	0.021119
1206	0.0341424
1218	0.0452299
1230	0.0473418
1242	0.176168
1254	0.492954
1266	0.385246
1278	0.104891
1290	0.152233
1302	0.1862
1314	0.187959
1326	0.375039
1338	0.593797
1350	0.694288
1362	0.261524
1374	0.0855321
1386	0.0841242
1398	0.0848281
1410	0.120379
1422	0.117035
1434	0.0689889
1446	0.0564934
1458	0.0612452
1470	0.0755006
1482	0.158041
1494	0.212246
1506	0.211542
1518	0.52076
1530	1.75992
1542	1.00808
1554	0.272788
1566	0.317842
1578	0.384543
1590	0.26522
1602	0.216294
1614	0.215766
1626	0.36184
1638	0.415693
1650	0.297778
1662	0.118971
1674	0.0299186
1686	0.022879
1698	0.0167192
1710	0.00633571
1722	0.0112635
1734	0.0158393
1746	0.0123194
1758	0.0165432
1770	0.0161913
1782	0.00809563
1794	0.00563174
1806	0.00193591
1818	0.00193591
1830	0.00827162
1842	0.00703968
1854	0.0021119
1866	0.00334385
1878	0.00281587
1890	0.00809563
1902	0.00932758
1914	0.00369583
1926	0.00140794
1938	0.00105595
1950	0.000175992
1962	0.00087996
1974	0.00105595
1986	0.00105595
1998	0.00158393
2010	0.00087996
2022	0.000703968
2034	0.00105595
2046	0.000175992
2058	0.000351984
2070	0.00175992
2082	0.00105595
2094	0.00140794
2106	0.0022879
2118	0.00158393
2130	0.000703968
2142	0.00105595
2154	0.00105595
2166	0.0022879
2178	0.00246389
2190	0.00175992
2202	0.00158393
2214	0.00175992
2226	0.000703968
2238	0.000527976
2250	0.00123194
2262	0.0022879
2274	0.00299186
2286	0.00193591
2298	0.00299186
2310	0.00404782
2322	0.00369583
2334	0.00598373
2346	0.00967956
2358	0.00703968
2370	0.00756766
2382	0.0065117
2394	0.00545575
2406	0.00598373
2418	0.00633571
2430	0.00580774
2442	0.0065117
2454	0.00563174
2466	0.00334385
2478	0.00246389
2490	0.0021119
2502	0.00281587
2514	0.00351984
2526	0.00246389
2538	0.00263988
2550	0.00457579
2562	0.00580774
2574	0.00580774
2586	0.00545575
2598	0.00510377
2610	0.00527976
2622	0.00457579
2634	0.00545575
2646	0.00739166
2658	0.00827162
2670	0.00827162
2682	0.00686369
2694	0.00492778
2706	0.00404782
2718	0.00475178
2730	0.00527976
2742	0.00897559
2754	0.0117915
2766	0.00897559
2778	0.00932758
2790	0.0100315
2802	0.0105595
2814	0.0133754
2826	0.0160153
2838	0.0181272
2850	0.0255188
2862	0.0406542
2874	0.0640611
2886	0.0698688
2898	0.0575494
2910	0.0575494
2922	0.0786684
2934	0.125834
2946	0.0989075
2958	0.0496297
2970	0.0369583
2982	0.0359024
2994	0.0367823
3006	0.0422381
3018	0.0607172
3030	0.088524
3042	0.0834202
3054	0.0619492
3066	0.0723327
3078	0.0533256
3090	0.0195351
3102	0.00985555
3114	0.00739166
3126	0.00457579
3138	0.0043998
3150	0.00457579
3162	0.00492778
3174	0.00510377
3186	0.00492778
3198	0.00457579
3210	0.00334385
3222	0.00334385
3234	0.00281587
3246	0.0022879
3258	0.00158393
3270	0.00281587
3282	0.00175992
3294	0.0022879
3306	0.0022879
3318	0.00193591
3330	0.00281587
3342	0.00351984
3354	0.00527976
3366	0.00809563
3378	0.0151353
3390	0.0503337
3402	0.174936
3414	0.241637
3426	0.0941557
3438	0.0186552
3450	0.0105595
3462	0.0121434
3474	0.0170712
3486	0.0283347
3498	0.0542055
3510	0.0997875
3522	0.156633
3534	0.146073
3546	0.0703968
3558	0.021647
3570	0.0102075
3582	0.00545575
3594	0.00633571
3606	0.00387182
3618	0.00387182
3630	0.00527976
3642	0.0022879
3654	0.00158393
3666	0.00087996
3678	0.00457579
3690	0.00123194
3702	0.00299186
3714	0.00334385
3726	0.00404782
3738	0.00334385
3750	0.00316786
3762	0.00175992
3774	0.00158393
3786	0.000175992
3798	0.000703968
3810	0.00246389
3822	0.00387182
3834	0.00158393
3846	0.00193591
3858	0.00299186
3870	0.00263988
3882	0.0021119
3894	0.00123194
3906	0.0021119
3918	0.00281587
3930	0.00316786
3942	0.00316786
3954	0.000703968
3966	0.0022879
