Infrared Spectrum: Benzene, 1,2,4-trichloro-5-nitro-
Formula: C 6 H 2 Cl 3 N O 2
CAS: 89-69-0
Origin: Sadtler Research Labs Under US-EPA Contract
1/CM	ABSORBANCE
450	0.00707871
462	0.0180969
474	0.0152038
486	0.020559
498	0.0469657
510	0.0494894
522	0.0206206
534	0.0132341
546	0.0331161
558	0
570	0.0123724
582	0.0153885
594	0.0467195
606	0.124278
618	0.0826055
630	0.0971938
642	0.14736
654	0.0862372
666	0.0372402
678	0.0371171
690	0.0603845
702	0.0307154
714	0.0016004
726	0.0304077
738	0.031885
750	0.0371786
762	0.034224
774	0.0198819
786	0.0270838
798	0.0630313
810	0.0814359
822	0.0212361
834	0.017112
846	0.0184046
858	0.0286226
870	0.04555
882	0.0984864
894	0.176044
906	0.127725
918	0.243692
930	0.0335469
942	0.0144036
954	0.0145883
966	0.0135419
978	0.0116953
990	0.0121877
1002	0.0118799
1014	0.0121877
1026	0.0135419
1038	0.0169889
1050	0.0229596
1062	0.0493663
1074	0.243077
1086	0.303707
1098	0.0994097
1110	0.0754037
1122	0.148222
1134	0.0640162
1146	0.0440727
1158	0.0705409
1170	0.0967013
1182	0.0373017
1194	0.0249294
1206	0.0208053
1218	0.0176044
1230	0.019328
1242	0.0321312
1254	0.0685712
1266	0.038225
1278	0.0240061
1290	0.0305923
1302	0.0465348
1314	0.0862987
1326	0.252187
1338	0.351104
1350	0.403179
1362	0.358983
1374	0.162687
1386	0.0891302
1398	0.0756499
1410	0.0782351
1422	0.0795278
1434	0.109689
1446	0.377695
1458	0.334792
1470	0.166319
1482	0.0651241
1494	0.0566297
1506	0.0894995
1518	0.146191
1530	0.238522
1542	0.412227
1554	0.527641
1566	0.614124
1578	0.417398
1590	0.304138
1602	0.147914
1614	0.0545368
1626	0.0315772
1638	0.0225903
1650	0.0195126
1662	0.0107104
1674	0.0116337
1686	0.0104642
1698	0.00978709
1710	0.00750959
1722	0.0104026
1734	0.0151423
1746	0.0190817
1758	0.0228981
1770	0.0140959
1782	0.0092331
1794	0.00966398
1806	0.00830979
1818	0.00566297
1830	0.00720182
1842	0.00492432
1854	0.00510898
1866	0.00517054
1878	0.00320081
1890	0.00375479
1902	0.00295459
1914	0.00344702
1926	0.00313925
1938	0.00246216
1950	0.00215439
1962	0.00326236
1974	0.00252371
1986	0.00203128
1998	0.00289304
2010	0.00215439
2022	0.00178507
2034	0.00209284
2046	0.00209284
2058	0.00252371
2070	0.0022775
2082	0.00240061
2094	0.000984864
2106	0.00110797
2118	0.00240061
2130	0.00246216
2142	0.00203128
2154	0.0022775
2166	0.00215439
2178	0.00252371
2190	0.00276993
2202	0.00203128
2214	0.000677094
2226	0.00116953
2238	0.00178507
2250	0.00221594
2262	0.00233905
2274	0.0030777
2286	0.00547831
2298	0.0092331
2310	0.0147114
2322	0.013111
2334	0.0118184
2346	0.0199435
2358	0.0160656
2370	0.0152654
2382	0.0121877
2394	0.00283148
2406	0.00246216
2418	0.00332392
2430	0.00252371
2442	0.00350858
2454	0.0030777
2466	0.00363169
2478	0.00313925
2490	0.00344702
2502	0.00381635
2514	0.00418567
2526	0.00344702
2538	0.00178507
2550	0.00276993
2562	0.00270838
2574	0.00381635
2586	0.00430878
2598	0.00473966
2610	0.00418567
2622	0.00461655
2634	0.00541675
2646	0.00560141
2658	0.00707871
2670	0.00954087
2682	0.00991019
2694	0.00941776
2706	0.0076327
2718	0.00683249
2730	0.00553986
2742	0.00652472
2754	0.00627851
2766	0.00504743
2778	0.00597074
2790	0.00701716
2802	0.00794047
2814	0.00664783
2826	0.00652472
2838	0.00750959
2850	0.00898688
2862	0.00960242
2874	0.0126801
2886	0.0151423
2898	0.0158809
2910	0.0151423
2922	0.0132957
2934	0.0118184
2946	0.00935621
2958	0.0077558
2970	0.00726337
2982	0.00597074
2994	0.00683249
3006	0.00757114
3018	0.0069556
3030	0.00707871
3042	0.00707871
3054	0.00701716
3066	0.0076327
3078	0.00954087
3090	0.0199435
3102	0.03367
3114	0.0131726
3126	0.00578608
3138	0.0038779
3150	0.00529364
3162	0.00412412
3174	0.00357013
3186	0.00350858
3198	0.0030777
3210	0.00449344
3222	0.00375479
3234	0.00270838
3246	0.00320081
3258	0.00276993
3270	0.00369324
3282	0.00313925
3294	0.00357013
3306	0.00209284
3318	0.00276993
3330	0.00313925
3342	0.00326236
3354	0.00295459
3366	0.00326236
3378	0.00295459
3390	0.00276993
3402	0.00375479
3414	0.0030777
3426	0.00221594
3438	0.00400101
3450	0.00141574
3462	0.00203128
3474	0.00258527
3486	0.00381635
3498	0.00252371
3510	0.004555
3522	0.00357013
3534	0.00270838
3546	0.0022775
3558	0.00276993
3570	0.00252371
3582	0.00381635
3594	0.00332392
3606	0.00400101
3618	0.00264682
3630	0.0038779
3642	0.00295459
3654	0.00338547
3666	0.00473966
3678	0.0030777
3690	0.0016004
3702	0.0046781
3714	0.0038779
3726	0.00233905
3738	0.00258527
3750	0.0022775
3762	0.0038779
3774	0.00381635
3786	0.00572452
3798	0.00424723
3810	0.00670939
3822	0.00270838
3834	0.00357013
3846	0.00634006
3858	0.00627851
3870	0.00221594
3882	0.00480121
3894	0.00209284
3906	0.0084329
3918	0.00233905
3930	0.00541675
3942	0.00233905
3954	0.0110182
3966	0.004555
