Infrared Spectrum: Benzene, 1,4-dichloro-2-nitro-
Formula: C 6 H 3 Cl 2 N O 2
CAS: 89-61-2
Origin: Sadtler Research Labs Under US-EPA Contract
1/CM	ABSORBANCE
450	0.0320079
462	0.0168673
474	0.0409064
486	0.056844
498	0.0365236
510	0.0200548
522	0.0260313
534	0.0552502
546	0.153665
558	0.0970863
570	0.0378517
582	0.054719
594	0.0766331
606	0.0491408
618	0.043297
630	0.0188594
642	0.0144766
654	0.0151407
666	0.0719846
678	0.0270939
690	0.0179298
702	0.0321407
714	0.0156719
726	0.0138126
738	0.0221798
750	0.0362579
762	0.167212
774	0.385423
786	0.0543205
798	0.024172
810	0.145563
822	0.298696
834	0.0658752
846	0.0114219
858	0.0118204
870	0.0749065
882	0.230962
894	0.109836
906	0.0126172
918	0.00212501
930	0.000664065
942	0.00278907
954	0.00517971
966	0.00478127
978	0.00491408
990	0.00252345
1002	0.0030547
1014	0.0061094
1026	0.01275
1038	0.0726487
1050	0.243446
1062	0.127633
1074	0.0576408
1086	0.189657
1098	0.454088
1110	0.371345
1122	0.0715862
1134	0.0415705
1146	0.0966879
1158	0.104524
1170	0.0345314
1182	0.0288204
1194	0.0158047
1206	0.00996097
1218	0.0104922
1230	0.0192579
1242	0.0802191
1254	0.128829
1266	0.0656096
1278	0.0301486
1290	0.0379845
1302	0.058969
1314	0.0673362
1326	0.0881878
1338	0.263634
1350	0.806972
1362	0.687573
1374	0.138524
1386	0.0818128
1398	0.0783597
1410	0.0567112
1422	0.0848675
1434	0.0938988
1446	0.114883
1458	0.404416
1470	0.564057
1482	0.190852
1494	0.100672
1506	0.140915
1518	0.250751
1530	0.371478
1542	0.656229
1554	1.2928
1566	1.04723
1578	0.567776
1590	0.376525
1602	0.191649
1614	0.0662737
1626	0.0402423
1638	0.0397111
1650	0.0240392
1662	0.0123516
1674	0.0192579
1686	0.0201876
1698	0.0298829
1710	0.0166016
1722	0.0100938
1734	0.0183282
1746	0.0179298
1758	0.0270939
1770	0.0273595
1782	0.00823441
1794	0.00703909
1806	0.00425002
1818	0.00239063
1830	0.00823441
1842	0.00703909
1854	0.00199219
1866	0.00478127
1878	0.00451564
1890	0.0122188
1902	0.0185938
1914	0.00823441
1926	0.00252345
1938	0.00318751
1950	0.00159376
1962	0.000398439
1974	0.00132813
1986	0.000664065
1998	0.000664065
2010	0.0010625
2022	0.00185938
2034	0.00132813
2046	0.00212501
2058	0.000531252
2070	0.000929691
2082	0.000531252
2094	0.000398439
2106	0.000929691
2118	0.0010625
2130	0.00132813
2142	0.00146094
2154	0.000929691
2166	0
2178	0.000796878
2190	0.000531252
2202	0.00132813
2214	0.00146094
2226	0.000398439
2238	0.00159376
2250	0.000929691
2262	0.000531252
2274	0.00172657
2286	0.00398439
2298	0.00650784
2310	0.00770315
2322	0.00730471
2334	0.00571096
2346	0.00677346
2358	0.00757034
2370	0.00159376
2382	0.00398439
2394	0.00225782
2406	0.00265626
2418	0.00252345
2430	0.00332032
2442	0.00385158
2454	0.00292189
2466	0.00172657
2478	0.00146094
2490	0.00185938
2502	0.00159376
2514	0.00239063
2526	0.00332032
2538	0.00358595
2550	0.00239063
2562	0.00199219
2574	0.00212501
2586	0.00278907
2598	0.00318751
2610	0.0041172
2622	0.00318751
2634	0.0030547
2646	0.00425002
2658	0.00478127
2670	0.00491408
2682	0.00730471
2694	0.0107579
2706	0.0122188
2718	0.00863285
2730	0.00544533
2742	0.00504689
2754	0.00451564
2766	0.00358595
2778	0.00438283
2790	0.00650784
2802	0.00836722
2814	0.0102266
2826	0.00929691
2838	0.00863285
2850	0.00956254
2862	0.0112891
2874	0.0134141
2886	0.0177969
2898	0.0253673
2910	0.0245704
2922	0.0160704
2934	0.0132813
2946	0.00996097
2958	0.0071719
2970	0.00544533
2982	0.0041172
2994	0.00385158
3006	0.0041172
3018	0.00451564
3030	0.00531252
3042	0.00451564
3054	0.00358595
3066	0.0061094
3078	0.0208516
3090	0.0264298
3102	0.0196563
3114	0.0107579
3126	0.00438283
3138	0.00451564
3150	0.00438283
3162	0.00278907
3174	0.00318751
3186	0.00265626
3198	0.00265626
3210	0.00212501
3222	0.00265626
3234	0.00252345
3246	0.00265626
3258	0.00212501
3270	0.00278907
3282	0.00265626
3294	0.00278907
3306	0.00265626
3318	0.00278907
3330	0.0030547
3342	0.00292189
3354	0.00345314
3366	0.00225782
3378	0.00278907
3390	0.0030547
3402	0.00332032
3414	0.00252345
3426	0.00239063
3438	0.0030547
3450	0.00212501
3462	0.00292189
3474	0.00265626
3486	0.00212501
3498	0.00265626
3510	0.00278907
3522	0.00239063
3534	0.00252345
3546	0.00278907
3558	0.00451564
3570	0.00385158
3582	0.00265626
3594	0.00318751
3606	0.00292189
3618	0.00146094
3630	0.0030547
3642	0.00823441
3654	0.00889847
3666	0.00292189
3678	0.00504689
3690	0.00318751
3702	0.00265626
3714	0.00332032
3726	0.00398439
3738	0.00425002
3750	0
3762	0.00265626
3774	0.00464845
3786	0.00278907
3798	0.00491408
3810	0
3822	0.00252345
3834	0.00318751
3846	0.00185938
3858	0
3870	0.00318751
3882	0.00239063
3894	0.00531252
3906	0.000398439
3918	0.00358595
3930	0.00318751
3942	0.00385158
3954	0.00478127
3966	0.00464845
