Infrared Spectrum: Benzoic acid, 2-methyl-, methyl ester
Formula: C 9 H 10 O 2
CAS: 89-71-4
Origin: Sadtler Research Labs Under US-EPA Contract
1/CM	ABSORBANCE
450	0.0071875
462	0.00914062
474	0.00632813
486	0.00484375
498	0.000859375
510	0.0025
522	0.00570312
534	0.00179688
546	0.00351563
558	0.00515625
570	0.00460937
582	0.00445313
594	0.00726563
606	0.00460937
618	0.00625
630	0.00898438
642	0.00976562
654	0.0178125
666	0.0291406
678	0.0135937
690	0.0214063
702	0.0198438
714	0.0227344
726	0.113281
738	0.22625
750	0.0776562
762	0.0235938
774	0.0229687
786	0.0224219
798	0.0157031
810	0.0174219
822	0.025
834	0.0289844
846	0.0160938
858	0.013125
870	0.0103906
882	0.0108594
894	0.0136719
906	0.0120313
918	0.00921875
930	0.0115625
942	0.0127344
954	0.0178906
966	0.0260156
978	0.0230469
990	0.0135156
1002	0.0119531
1014	0.0124219
1026	0.016875
1038	0.02875
1050	0.0582812
1062	0.0548438
1074	0.150469
1086	0.386484
1098	0.234141
1110	0.085
1122	0.0905469
1134	0.144687
1146	0.130156
1158	0.0674219
1170	0.056875
1182	0.05875
1194	0.0778906
1206	0.0665625
1218	0.066875
1230	0.0769531
1242	0.180391
1254	0.625781
1266	0.642734
1278	0.224219
1290	0.289609
1302	0.214297
1314	0.0526563
1326	0.0301562
1338	0.0225781
1350	0.0190625
1362	0.0185156
1374	0.0205469
1386	0.0274219
1398	0.0271875
1410	0.0217188
1422	0.0298438
1434	0.0900781
1446	0.129844
1458	0.0859375
1470	0.0628125
1482	0.0499219
1494	0.0460156
1506	0.0274219
1518	0.0175
1530	0.0160156
1542	0.0202344
1554	0.01875
1566	0.0239844
1578	0.0326562
1590	0.0289063
1602	0.0401562
1614	0.031875
1626	0.0171094
1638	0.0163281
1650	0.0145313
1662	0.01375
1674	0.0157031
1686	0.0235156
1698	0.0329687
1710	0.0535156
1722	0.110234
1734	0.391016
1746	0.582266
1758	0.198438
1770	0.0878906
1782	0.0425
1794	0.0175781
1806	0.0125781
1818	0.0120313
1830	0.00960937
1842	0.00921875
1854	0.00710938
1866	0.00601563
1878	0.00632813
1890	0.00695313
1902	0.00820313
1914	0.0107031
1926	0.0146875
1938	0.0117969
1950	0.0096875
1962	0.00921875
1974	0.00664062
1986	0.00507813
1998	0.00460937
2010	0.00507813
2022	0.0059375
2034	0.00695313
2046	0.0078125
2058	0.00796875
2070	0.006875
2082	0.0071875
2094	0.00726563
2106	0.00570312
2118	0.00429688
2130	0.00421875
2142	0.00367188
2154	0.00351563
2166	0.00382812
2178	0.0034375
2190	0.0034375
2202	0.0034375
2214	0.0034375
2226	0.00382812
2238	0.00335937
2250	0.00320313
2262	0.00320313
2274	0.003125
2286	0.003125
2298	0.003125
2310	0.00351563
2322	0.0046875
2334	0.00585938
2346	0.005
2358	0.00382812
2370	0.00539063
2382	0.00265625
2394	0.0028125
2406	0.00273438
2418	0.00265625
2430	0.0021875
2442	0.00203125
2454	0.00210938
2466	0.0015625
2478	0.00148438
2490	0.00148438
2502	0.001875
2514	0.00179688
2526	0.001875
2538	0.00203125
2550	0.00164062
2562	0.00210938
2574	0.0021875
2586	0.00203125
2598	0.00210938
2610	0.00109375
2622	0.00140625
2634	0.00101563
2646	0.0009375
2658	0.00148438
2670	0.0009375
2682	0.00101563
2694	0.00125
2706	0.00164062
2718	0.00109375
2730	0.0021875
2742	0.00234375
2754	0.00328125
2766	0.00242187
2778	0.00179688
2790	0.00195312
2802	0.0025
2814	0.00351563
2826	0.00546875
2838	0.0123438
2850	0.0255469
2862	0.0160938
2874	0.016875
2886	0.0198438
2898	0.0233594
2910	0.0278125
2922	0.0347656
2934	0.0453125
2946	0.0654688
2958	0.126406
2970	0.0976562
2982	0.0551563
2994	0.0532031
3006	0.0430469
3018	0.0392969
3030	0.0557813
3042	0.0496094
3054	0.0375781
3066	0.0517969
3078	0.0628125
3090	0.0384375
3102	0.0159375
3114	0.0128906
3126	0.006875
3138	0.00460937
3150	0.0046875
3162	0.00429688
3174	0.00328125
3186	0.00289062
3198	0.0021875
3210	0.0025
3222	0.0015625
3234	0.00125
3246	0.00101563
3258	0.00125
3270	0.00078125
3282	0.000390625
3294	0.00125
3306	0.000703125
3318	0.00101563
3330	0.000546875
3342	0.00109375
3354	0.00171875
3366	0.00117187
3378	0.00125
3390	0.00171875
3402	0.0015625
3414	0.00101563
3426	0.00140625
3438	0.00140625
3450	0.00242187
3462	0.00507813
3474	0.00515625
3486	0.00257813
3498	0.0021875
3510	0.00117187
3522	0.000546875
3534	0.000859375
3546	0.0009375
3558	0.00148438
3570	0.00210938
3582	0.00171875
3594	0.00203125
3606	0.00164062
3618	0.00203125
3630	0.00351563
3642	0.00171875
3654	0.00273438
3666	0.00242187
3678	0.00398438
3690	0.00398438
3702	0.00203125
3714	0.00335937
3726	0.00375
3738	0.00507813
3750	0.00554687
3762	0.00414063
3774	0.00367188
3786	0.00429688
3798	0.00554687
3810	0.00492188
3822	0.00632813
3834	0.0059375
3846	0.00578125
3858	0.005625
3870	0.00609375
3882	0.00546875
3894	0.00523438
3906	0.00585938
3918	0.00523438
3930	0.00523438
3942	0.00507813
3954	0
3966	0.000390625
