Infrared Spectrum: Phenol, 2-(1-methylpropyl)-
Formula: C 10 H 14 O
CAS: 89-72-5
Origin: Sadtler Research Labs Under US-EPA Contract
1/CM	ABSORBANCE
450	0.026731
462	0.0291511
474	0.0509319
486	0.0799729
498	0.082063
510	0.0636923
522	0.0398214
534	0.0323412
546	0.0242009
558	0.0244209
570	0.0227708
582	0.027061
594	0.0192507
606	0.0118804
618	0.00605022
630	0.00462017
642	0.00528019
654	0.000440016
666	0.00055002
678	0.00517019
690	0.0147405
702	0.0295911
714	0.0476317
726	0.0940534
738	0.412735
750	0.684665
762	0.205817
774	0.0388314
786	0.0372914
798	0.0453216
810	0.0854731
822	0.138825
834	0.0948234
846	0.0480717
858	0.0507118
870	0.0387214
882	0.0102304
894	0.00385014
906	0.00231008
918	0.00803029
930	0.0243109
942	0.0174906
954	0.0196907
966	0.0248609
978	0.0220008
990	0.0336612
1002	0.0622623
1014	0.0796429
1026	0.0696325
1038	0.0973535
1050	0.0840431
1062	0.0738127
1074	0.110994
1086	0.160826
1098	0.126505
1110	0.124965
1122	0.113084
1134	0.131235
1146	0.250919
1158	0.28876
1170	0.497988
1182	0.529119
1194	0.413285
1206	0.397884
1218	0.234089
1230	0.188547
1242	0.324072
1254	0.392714
1266	0.237829
1278	0.174466
1290	0.164566
1302	0.152796
1314	0.244649
1326	0.301521
1338	0.124965
1350	0.0525819
1362	0.0517019
1374	0.0871232
1386	0.117374
1398	0.055662
1410	0.0352013
1422	0.0459817
1434	0.0869032
1446	0.26148
1458	0.433196
1470	0.295141
1482	0.27622
1494	0.389524
1506	0.27512
1518	0.110664
1530	0.0386114
1542	0.026841
1554	0.0297011
1566	0.0512619
1578	0.124965
1590	0.175896
1602	0.145975
1614	0.109674
1626	0.0387214
1638	0.0157306
1650	0.0137505
1662	0.0155106
1674	0.0248609
1686	0.0205707
1698	0.0150705
1710	0.0106704
1722	0.00462017
1734	0.0053902
1746	0.00616022
1758	0.0104504
1770	0.0151806
1782	0.0148505
1794	0.0114404
1806	0.00979036
1818	0.00858031
1830	0.00583021
1842	0.00429016
1854	0.00748027
1866	0.0083603
1878	0.0130905
1890	0.0236509
1902	0.0140805
1914	0.0114404
1926	0.0172706
1938	0.00847031
1950	0.00154006
1962	0.00143005
1974	0.00143005
1986	0.00297011
1998	0.0026401
2010	0.000880032
2022	0.00165006
2034	0.00363013
2046	0.00209008
2058	0.00594022
2070	0.00649024
2082	0.00396014
2094	0.00176006
2106	0.00396014
2118	0.00209008
2130	0.00154006
2142	0.000440016
2154	0.000880032
2166	0.000990036
2178	0.00165006
2190	0.00242009
2202	0.0026401
2214	0.00110004
2226	0.000990036
2238	0.0027501
2250	0.00341012
2262	0.00374014
2274	0.00451016
2286	0.00616022
2298	0.00891032
2310	0.0110004
2322	0.00880032
2334	0.00748027
2346	0.00935034
2358	0.00528019
2370	0.00726026
2382	0.00957035
2394	0.00957035
2406	0.0103404
2418	0.0121004
2430	0.0129805
2442	0.0106704
2454	0.0103404
2466	0.0105604
2478	0.0111104
2490	0.0107804
2502	0.00858031
2514	0.00737027
2526	0.00715026
2538	0.00671024
2550	0.0083603
2562	0.00946034
2574	0.00946034
2586	0.0103404
2598	0.00957035
2610	0.0108904
2622	0.0106704
2634	0.0112204
2646	0.0108904
2658	0.0107804
2670	0.0112204
2682	0.0115504
2694	0.0118804
2706	0.0132005
2718	0.0148505
2730	0.0185907
2742	0.0216708
2754	0.0187007
2766	0.0163906
2778	0.0176006
2790	0.0212308
2802	0.026731
2814	0.0325612
2826	0.0415815
2838	0.0533519
2850	0.0718326
2862	0.150925
2874	0.321542
2886	0.431656
2898	0.294371
2910	0.27325
2922	0.394034
2934	0.53737
2946	0.511519
2958	0.54848
2970	1.09146
2982	0.702046
2994	0.178867
3006	0.0994436
3018	0.128155
3030	0.185797
3042	0.203617
3054	0.160936
3066	0.179527
3078	0.220668
3090	0.138825
3102	0.0730427
3114	0.0444416
3126	0.027831
3138	0.0203507
3150	0.0195807
3162	0.0189207
3174	0.0170506
3186	0.0155106
3198	0.0130905
3210	0.0110004
3222	0.00924034
3234	0.00847031
3246	0.0056102
3258	0.00528019
3270	0.0053902
3282	0.00528019
3294	0.00495018
3306	0.00495018
3318	0.00517019
3330	0.00605022
3342	0.00748027
3354	0.00935034
3366	0.00858031
3378	0.00935034
3390	0.00902033
3402	0.00847031
3414	0.00792029
3426	0.00682025
3438	0.00583021
3450	0.00528019
3462	0.00484018
3474	0.00396014
3486	0.00297011
3498	0.00297011
3510	0.00143005
3522	0.00209008
3534	0.00253009
3546	0.00187007
3558	0.00165006
3570	0.00187007
3582	0.00407015
3594	0.00583021
3606	0.00396014
3618	0.0125405
3630	0.0585221
3642	0.347063
3654	0.507228
3666	0.159836
3678	0.0256309
3690	0.00660024
3702	0.000110004
3714	0.000110004
3726	0.000110004
3738	0.00110004
3750	0.00121004
3762	0.000110004
3774	0.00242009
3786	0.00176006
3798	0.00220008
3810	0
3822	0.0053902
3834	0.000880032
3846	0.00528019
3858	0.00693025
3870	0.00495018
3882	0.00242009
3894	0.00660024
3906	0.00440016
3918	0.00396014
3930	0.00418015
3942	0.00517019
3954	0.00792029
3966	0.0055002
