Infrared Spectrum: Benzoyl chloride, 2,4-dichloro-
Formula: C 7 H 3 Cl 3 O
CAS: 89-75-8
Origin: Sadtler Research Labs Under US-EPA Contract
1/CM	ABSORBANCE
450	0.0580529
462	0.0482475
474	0.020391
486	0.0173825
498	0.0165468
510	0.0220066
522	0.0315336
534	0.0510888
546	0.0412833
558	0.0179396
570	0.0305864
582	0.0846838
594	0.042119
606	0.00818981
618	0.00768839
630	0.00902551
642	0.0231209
654	0.0327592
666	0.0441804
678	0.023678
690	0.00830124
702	0.0105298
714	0.00885837
726	0.0148197
738	0.0155439
750	0.029305
762	0.06329
774	0.167863
786	0.261015
798	0.082511
810	0.057273
822	0.0901436
834	0.039222
846	0.0379963
858	0.102846
870	0.327035
882	0.55713
894	0.240402
906	0.12931
918	0.0823995
930	0.0369934
942	0.0250708
954	0.0241237
966	0.0239009
978	0.0269651
990	0.0281351
1002	0.0241794
1014	0.0228423
1026	0.0150425
1038	0.0133154
1050	0.035322
1062	0.110925
1074	0.0595572
1086	0.0306421
1098	0.0443475
1110	0.102122
1122	0.0484703
1134	0.0309207
1146	0.100952
1158	0.0282465
1170	0.036882
1182	0.113487
1194	0.262074
1206	0.124909
1218	0.0302522
1230	0.017271
1242	0.0195553
1254	0.0524816
1266	0.0279679
1278	0.0227866
1290	0.010474
1302	0.00841266
1314	0.0094155
1326	0.00841266
1338	0.00841266
1350	0.0115326
1362	0.0337621
1374	0.0862994
1386	0.0539859
1398	0.0193324
1410	0.0129811
1422	0.0120897
1434	0.0138168
1446	0.0340964
1458	0.0803939
1470	0.0951021
1482	0.0491946
1494	0.0177167
1506	0.0167696
1518	0.0145968
1530	0.0204467
1542	0.0500303
1554	0.092205
1566	0.0748783
1578	0.203631
1590	0.268202
1602	0.0418405
1614	0.0142068
1626	0.00980549
1638	0.0128697
1650	0.0144297
1662	0.010474
1674	0.010474
1686	0.0117554
1698	0.013984
1710	0.0118669
1722	0.0207252
1734	0.0402805
1746	0.0586101
1758	0.0882494
1770	0.121844
1782	0.163462
1794	0.287423
1806	0.39261
1818	0.168866
1830	0.0739312
1842	0.0329264
1854	0.0161568
1866	0.0110312
1878	0.00802267
1890	0.00830124
1902	0.00874694
1914	0.00774411
1926	0.00618414
1938	0.00579415
1950	0.00568273
1962	0.00462418
1974	0.00529273
1986	0.00529273
1998	0.00456847
2010	0.00545987
2022	0.00456847
2034	0.00573844
2046	0.00412276
2058	0.006017
2070	0.00568273
2082	0.00479132
2094	0.00401134
2106	0.00328707
2118	0.00534845
2130	0.00456847
2142	0.00451275
2154	0.00395562
2166	0.0038442
2178	0.0051256
2190	0.0051256
2202	0.0055713
2214	0.00389991
2226	0.00501417
2238	0.00534845
2250	0.00646271
2262	0.00735412
2274	0.00417848
2286	0.00551559
2298	0.00451275
2310	0.00350992
2322	0.00323135
2334	0.000891408
2346	0.00116997
2358	0
2370	0.00740983
2382	0.00612843
2394	0.00479132
2406	0.00339849
2418	0.00534845
2430	0.00612843
2442	0.00523702
2454	0.00573844
2466	0.00423419
2478	0.00479132
2490	0.00490274
2502	0.00584987
2514	0.006017
2526	0.00618414
2538	0.00791125
2550	0.00662985
2562	0.00668556
2574	0.00417848
2586	0.0055713
2598	0.00490274
2610	0.00490274
2622	0.00701984
2634	0.00518131
2646	0.00629557
2658	0.00479132
2670	0.00612843
2682	0.00518131
2694	0.00596129
2706	0.0038442
2718	0.00434561
2730	0.00545987
2742	0.00562701
2754	0.00623986
2766	0.0042899
2778	0.00545987
2790	0.00534845
2802	0.00635128
2814	0.00551559
2826	0.00423419
2838	0.00484703
2850	0.00295279
2862	0.00406705
2874	0.00406705
2886	0.00311993
2898	0.00323135
2910	0.00211709
2922	0.00183853
2934	0.00167139
2946	0.00484703
2958	0.00311993
2970	0.00412276
2982	0.00807839
2994	0.00657413
3006	0.006017
3018	0.00534845
3030	0.00668556
3042	0.00623986
3054	0.0068527
3066	0.00646271
3078	0.00679699
3090	0.00824552
3102	0.00713126
3114	0.00696412
3126	0.00629557
3138	0.00467989
3150	0.00523702
3162	0.00579415
3174	0.00612843
3186	0.00479132
3198	0.00406705
3210	0.00373277
3222	0.00534845
3234	0.00679699
3246	0.00568273
3258	0.00412276
3270	0.00311993
3282	0.00395562
3294	0.00423419
3306	0.00523702
3318	0.00356563
3330	0.00323135
3342	0.00334278
3354	0.00501417
3366	0.00568273
3378	0.00317564
3390	0.00367706
3402	0.00462418
3414	0.00568273
3426	0.00618414
3438	0.00423419
3450	0.00406705
3462	0.00350992
3474	0.0055713
3486	0.00568273
3498	0.0042899
3510	0.00389991
3522	0.00367706
3534	0.00635128
3546	0.00629557
3558	0.00791125
3570	0.00874694
3582	0.00735412
3594	0.00629557
3606	0.0072984
3618	0.0055713
3630	0.00529273
3642	0.00406705
3654	0.00462418
3666	0.00490274
3678	0.0068527
3690	0.00473561
3702	0.0025628
3714	0.00462418
3726	0.00506988
3738	0.00568273
3750	0.00690841
3762	0.00462418
3774	0.0051256
3786	0.00545987
3798	0.00651842
3810	0.00562701
3822	0.00518131
3834	0.0055713
3846	0.00568273
3858	0.00623986
3870	0.00462418
3882	0.00267422
3894	0.00289708
3906	0.00484703
3918	0.00289708
3930	0.00311993
3942	0.00167139
3954	0.00161568
3966	0.00183853
