Infrared Spectrum: Benzenemethanamine, 2-fluoro-
Formula: C 7 H 8 F N
CAS: 89-99-6
Origin: Sadtler Research Labs Under US-EPA Contract
1/CM	ABSORBANCE
450	0.020592
462	0.0155626
474	0.0172707
486	0.00379576
498	0.00702216
510	0.00958429
522	0.0173656
534	0.0141392
546	0.0139494
558	0.0133801
570	0.0122413
582	0.0281835
594	0.0336874
606	0.0188839
618	0.00854046
630	0.00910982
642	0.00977408
654	0.0172707
666	0.0222052
678	0.0293222
690	0.0544692
702	0.091288
714	0.152495
726	0.209051
738	0.396752
750	0.731063
762	0.496391
774	0.219395
786	0.178401
798	0.242739
810	0.253462
822	0.179255
834	0.203548
846	0.233819
858	0.17043
870	0.141772
882	0.0986898
894	0.051053
906	0.0258112
918	0.0226797
930	0.0348261
942	0.0348261
954	0.0198328
966	0.016132
978	0.0149933
990	0.0146137
1002	0.0193584
1014	0.0379576
1026	0.0812293
1038	0.0854046
1050	0.0557028
1062	0.0509581
1074	0.0410891
1086	0.048301
1098	0.0663309
1110	0.0520019
1122	0.0307457
1134	0.033118
1146	0.0450747
1158	0.0364393
1170	0.0493449
1182	0.12991
1194	0.145283
1206	0.0978357
1218	0.233724
1230	0.46517
1242	0.384795
1254	0.136078
1266	0.099354
1278	0.0741122
1290	0.0380525
1302	0.0230592
1314	0.019738
1326	0.0238184
1338	0.0394759
1350	0.0481113
1362	0.0542794
1374	0.0690828
1386	0.0941348
1398	0.0714552
1410	0.0317895
1422	0.0233439
1434	0.0415636
1446	0.124501
1458	0.244637
1470	0.222052
1482	0.30423
1494	0.474755
1506	0.289522
1518	0.0695573
1530	0.0244827
1542	0.0200226
1554	0.0233439
1566	0.0466878
1578	0.124786
1590	0.181912
1602	0.140253
1614	0.133895
1626	0.109697
1638	0.0714552
1650	0.0568415
1662	0.0235337
1674	0.0157524
1686	0.0221103
1698	0.0173656
1710	0.00730684
1722	0.00711705
1734	0.00920472
1746	0.0113873
1758	0.0166065
1770	0.0170809
1782	0.0204022
1794	0.0178401
1806	0.0124311
1818	0.00986898
1830	0.00825578
1842	0.00531406
1854	0.00332129
1866	0.00654769
1878	0.00540896
1890	0.00806599
1902	0.0178401
1914	0.0149933
1926	0.00892004
1938	0.0137596
1950	0.00844557
1962	0.00227746
1974	0.00132852
1986	0.00094894
1998	0.00094894
2010	0.000569364
2022	0.0016132
2034	0.00218256
2046	0.00351108
2058	0.00493449
2070	0.00483959
2082	0.00351108
2094	0.00284682
2106	0.00104383
2118	0.000759152
2130	0.00047447
2142	0.000854046
2154	0.00047447
2166	0.000284682
2178	0.000284682
2190	0.000379576
2202	0.000569364
2214	0.00094894
2226	0.00132852
2238	0.00123362
2250	0.00189788
2262	0.00113873
2274	0.00170809
2286	0.00218256
2298	0.00512428
2310	0.00844557
2322	0.00873025
2334	0.00588343
2346	0.0032264
2358	0.00654769
2370	0
2382	0.000284682
2394	0.00199277
2406	0.00303661
2418	0.00436512
2430	0.00427023
2442	0.00493449
2454	0.00664258
2466	0.00521917
2478	0.00275193
2490	0.00180299
2502	0.0016132
2514	0.00237235
2526	0.00265703
2538	0.00265703
2550	0.0031315
2562	0.00417534
2574	0.00408044
2586	0.00417534
2598	0.00284682
2610	0.00227746
2622	0.00208767
2634	0.00294171
2646	0.00246724
2658	0.00531406
2670	0.00588343
2682	0.00616811
2694	0.00645279
2706	0.00664258
2718	0.0063579
2730	0.00740173
2742	0.00873025
2754	0.0114822
2766	0.0132852
2778	0.0133801
2790	0.0155626
2802	0.0186941
2814	0.0195482
2826	0.0242929
2838	0.0361546
2850	0.0535202
2862	0.0738275
2874	0.0970766
2886	0.105332
2898	0.0890106
2910	0.0802803
2922	0.0879667
2934	0.105617
2946	0.118428
2958	0.106851
2970	0.0733531
2982	0.0419431
2994	0.0246724
3006	0.017935
3018	0.0270448
3030	0.0539947
3042	0.0853097
3054	0.100967
3066	0.102011
3078	0.123362
3090	0.116909
3102	0.0607322
3114	0.0204971
3126	0.010723
3138	0.0063579
3150	0.00512428
3162	0.00569364
3174	0.00578853
3186	0.00588343
3198	0.00588343
3210	0.00683237
3222	0.00569364
3234	0.00512428
3246	0.00578853
3258	0.00531406
3270	0.00493449
3282	0.0063579
3294	0.0047447
3306	0.00673747
3318	0.0063579
3330	0.00740173
3342	0.0105332
3354	0.0155626
3366	0.0103434
3378	0.00702216
3390	0.00692726
3402	0.00664258
3414	0.0126209
3426	0.0113873
3438	0.00844557
3450	0.00645279
3462	0.00493449
3474	0.00550385
3486	0.00455491
3498	0.00341618
3510	0.00218256
3522	0.00360597
3534	0.00360597
3546	0.0016132
3558	0.00275193
3570	0.00360597
3582	0.00246724
3594	0.00398555
3606	0.00332129
3618	0.00256214
3630	0.00389065
3642	0.00417534
3654	0.0031315
3666	0.00227746
3678	0.00417534
3690	0.00408044
3702	0.00332129
3714	0.00180299
3726	0.00370087
3738	0.00398555
3750	0.00275193
3762	0.00132852
3774	0.00398555
3786	0.00360597
3798	0.00360597
3810	0.00275193
3822	0.00199277
3834	0.0016132
3846	0.00246724
3858	0.00578853
3870	0.00436512
3882	0.00142341
3894	0.00844557
3906	0.000664258
3918	0.00341618
3930	0.00521917
3942	0.00578853
3954	0.00493449
3966	0.00199277
