Infrared Spectrum: Benzenamine, 2-methoxy-
Formula: C 7 H 9 N O
CAS: 90-04-0
Origin: Sadtler Research Labs Under US-EPA Contract
1/CM	ABSORBANCE
450	0.0687496
462	0.0474401
474	0.0388585
486	0.0371229
498	0.035098
510	0.0467652
522	0.05014
534	0.0472473
546	0.0537076
558	0.0654712
570	0.0692317
582	0.0732815
594	0.0768491
606	0.0566003
618	0.0623857
630	0.0721244
642	0.0973872
654	0.108476
666	0.0934339
678	0.0801275
690	0.0817667
702	0.0806096
714	0.130557
726	0.325524
738	0.594448
750	0.394563
762	0.16604
774	0.0673033
786	0.0351944
798	0.02507
810	0.0183204
822	0.016874
834	0.0185132
846	0.0167776
858	0.00800311
870	0.00511042
882	0.00771384
894	0.0137885
906	0.0226594
918	0.0128243
930	0.00298911
942	0.000289269
954	0.00163919
966	0.00655676
978	0.0158134
990	0.0293126
1002	0.049465
1014	0.0987372
1026	0.16228
1038	0.238261
1050	0.256774
1062	0.16498
1074	0.11995
1086	0.106547
1098	0.0550575
1110	0.0338445
1122	0.0363515
1134	0.0956516
1146	0.121011
1158	0.0728958
1170	0.104233
1182	0.190918
1194	0.175586
1206	0.227173
1218	0.754703
1230	0.961916
1242	0.351751
1254	0.219555
1266	0.515285
1278	0.552793
1290	0.209527
1302	0.0985443
1314	0.0698103
1326	0.0878414
1338	0.0883235
1350	0.0484043
1362	0.0151384
1374	0.00289269
1386	0.00916018
1398	0.00761742
1410	0.00800311
1422	0.0119565
1434	0.0282519
1446	0.0733779
1458	0.170958
1470	0.23074
1482	0.192846
1494	0.44046
1506	0.843219
1518	0.668886
1530	0.230258
1542	0.0566003
1554	0.0539005
1566	0.0767527
1578	0.112044
1590	0.185614
1602	0.276252
1614	0.480476
1626	0.549033
1638	0.235851
1650	0.0647963
1662	0.0373157
1674	0.0159098
1686	0.00646034
1698	0.00202488
1710	0.00771384
1722	0.0126314
1734	0.0111851
1746	0.010703
1758	0.00607465
1770	0.00414619
1782	0.00597823
1794	0.00578538
1806	0.00829238
1818	0.0071353
1830	0.00443546
1842	0.010028
1854	0.0161991
1866	0.0115708
1878	0.00944945
1890	0.0124386
1902	0.0181275
1914	0.010028
1926	0.005014
1938	0.00491757
1950	0.00491757
1962	0.00761742
1974	0.0121493
1986	0.0112815
1998	0.00684603
2010	0.00800311
2022	0.0102208
2034	0.0114743
2046	0.00973872
2058	0.0110886
2070	0.0114743
2082	0.0106065
2094	0.00867807
2106	0.00771384
2118	0.00607465
2130	0.005014
2142	0.0037605
2154	0.00212131
2166	0.00173561
2178	0.00202488
2190	0.00173561
2202	0.00212131
2214	0.00260342
2226	0.00269984
2238	0.00347123
2250	0.00520684
2262	0.00636392
2274	0.00568896
2286	0.00356765
2298	0.00183204
2310	0.00221773
2322	0.00163919
2334	0.000385692
2346	0.000867807
2358	0.000674961
2370	9.6423e-05
2382	0.000192846
2394	9.6423e-05
2406	0
2418	0.000578538
2430	0.00231415
2442	0.005014
2454	0.00578538
2466	0.00385692
2478	0.0033748
2490	0.00443546
2502	0.00453188
2514	0.005014
2526	0.00694246
2538	0.0071353
2550	0.00665319
2562	0.00597823
2574	0.00491757
2586	0.00433903
2598	0.00665319
2610	0.00925661
2622	0.00954588
2634	0.00887092
2646	0.00809953
2658	0.0071353
2670	0.00597823
2682	0.00559253
2694	0.005014
2706	0.0037605
2718	0.00404977
2730	0.00472473
2742	0.00511042
2754	0.00559253
2766	0.00674961
2778	0.00761742
2790	0.00944945
2802	0.012535
2814	0.0196703
2826	0.0385692
2838	0.117732
2850	0.144731
2862	0.072028
2874	0.0405941
2886	0.0443546
2898	0.0644106
2910	0.106644
2922	0.134221
2934	0.136631
2946	0.19921
2958	0.226498
2970	0.128435
2982	0.0798382
2994	0.120914
3006	0.175008
3018	0.126121
3030	0.12805
3042	0.163437
3054	0.145984
3066	0.154277
3078	0.154855
3090	0.107704
3102	0.0606501
3114	0.0336516
3126	0.0219844
3138	0.0138849
3150	0.0104137
3162	0.00935303
3174	0.0104137
3186	0.0110886
3198	0.0108958
3210	0.00906376
3222	0.00694246
3234	0.00617107
3246	0.00424261
3258	0.0037605
3270	0.00385692
3282	0.00366407
3294	0.00347123
3306	0.00347123
3318	0.00395334
3330	0.00318196
3342	0.00395334
3354	0.0037605
3366	0.0058818
3378	0.00877449
3390	0.0233344
3402	0.0726065
3414	0.093916
3426	0.051297
3438	0.0176454
3450	0.0103173
3462	0.0128243
3474	0.0233344
3486	0.0607465
3498	0.10674
3510	0.097098
3522	0.05014
3534	0.0162955
3546	0.00703888
3558	0.00433903
3570	0.00327838
3582	0.00327838
3594	0.002507
3606	0.00308554
3618	0.00269984
3630	0.00192846
3642	0.00241057
3654	0.00163919
3666	0.00269984
3678	0.000385692
3690	0.00096423
3702	0.00221773
3714	0.00183204
3726	0.00106065
3738	0.0012535
3750	0.00308554
3762	0.00106065
3774	0.00183204
3786	0.00192846
3798	0.00106065
3810	0.00260342
3822	0.000771384
3834	0.00096423
3846	0.00183204
3858	0.00298911
3870	0.0037605
3882	0.00308554
3894	0.00347123
3906	0.002507
3918	0.00202488
3930	0.00212131
3942	0.00134992
3954	0.00260342
3966	0.002507
