Infrared Spectrum: Phenol, 2-methoxy-
Formula: C 7 H 8 O 2
CAS: 90-05-1
Origin: Sadtler Research Labs Under US-EPA Contract
1/CM	ABSORBANCE
450	0.13535
462	0.139996
474	0.0858554
486	0.0414861
498	0.0190612
510	0.00624694
522	0.0427675
534	0.0394038
546	0.00961068
558	0.00592659
570	0.013455
582	0.026109
594	0.0177798
606	0.00448498
618	0.0014416
630	0.00720801
642	0.00544605
654	0.0121735
666	0.0140957
678	0.0185806
690	0.037802
702	0.0342781
714	0.0592659
726	0.26077
738	0.720481
750	0.641032
762	0.312347
774	0.111964
786	0.0687164
798	0.0674349
810	0.070158
822	0.0727208
834	0.0861758
846	0.0797686
858	0.0549411
870	0.0438888
882	0.0386029
894	0.0392436
906	0.0474127
918	0.0571835
930	0.0413259
942	0.0264294
954	0.0241869
966	0.0317152
978	0.0454906
990	0.0672748
1002	0.0973882
1014	0.185646
1026	0.334452
1038	0.451702
1050	0.330768
1062	0.124298
1074	0.0554216
1086	0.065673
1098	0.169949
1110	0.312507
1122	0.236743
1134	0.109402
1146	0.157295
1158	0.232098
1170	0.326763
1182	0.397882
1194	0.404129
1206	0.651444
1218	1.06759
1230	1.11548
1242	0.740823
1254	1.22648
1266	1.60178
1278	0.62053
1290	0.201184
1302	0.13487
1314	0.105557
1326	0.0844138
1338	0.0993104
1350	0.198941
1362	0.336053
1374	0.263172
1386	0.0914616
1398	0.0602269
1410	0.0600668
1422	0.0599066
1434	0.089059
1446	0.202465
1458	0.28768
1470	0.283355
1482	0.34214
1494	0.985415
1506	1.45602
1518	0.757962
1530	0.231137
1542	0.0675951
1554	0.0472525
1566	0.0648721
1578	0.113887
1590	0.230336
1602	0.325642
1614	0.272142
1626	0.159057
1638	0.0488543
1650	0.0214639
1662	0.018901
1674	0.017139
1686	0.0177798
1698	0.0126541
1710	0.0115328
1722	0.0156974
1734	0.0225851
1746	0.0297931
1758	0.0280311
1770	0.0203426
1782	0.0181001
1794	0.0208231
1806	0.0294728
1818	0.0301135
1830	0.0214639
1842	0.0137753
1854	0.0150567
1866	0.0209833
1878	0.0182603
1890	0.00993104
1902	0.0137753
1914	0.0185806
1926	0.0108921
1938	0.00608676
1950	0.00528587
1962	0.0065673
1974	0.0094505
1986	0.00993104
1998	0.00993104
2010	0.0147364
2022	0.0160178
2034	0.0128142
2046	0.0145762
2058	0.0174594
2070	0.0148966
2082	0.0118532
2094	0.00913015
2106	0.00576641
2118	0.00368409
2130	0.00400445
2142	0.00352392
2154	0.00256285
2166	0.00192214
2178	0.00128142
2190	0.00128142
2202	0.00192214
2214	0.00272303
2226	0.00320356
2238	0.00464516
2250	0.00880979
2262	0.0100912
2274	0.00528587
2286	0.00272303
2298	0.00336374
2310	0.0051257
2322	0.00496552
2334	0.00352392
2346	0.00448498
2358	0
2370	0.00400445
2382	0.00576641
2394	0.00432481
2406	0.00464516
2418	0.00672748
2430	0.00961068
2442	0.00929032
2454	0.00624694
2466	0.00544605
2478	0.00688765
2490	0.00752837
2502	0.00961068
2514	0.0163382
2526	0.0208231
2538	0.0120133
2550	0.00496552
2562	0.00384427
2574	0.0028832
2586	0.00240267
2598	0.0028832
2610	0.00464516
2622	0.00624694
2634	0.00576641
2646	0.0028832
2658	0.00272303
2670	0.000961068
2682	0
2694	0.00240267
2706	0.00352392
2718	0.00336374
2730	0.00384427
2742	0.0065673
2754	0.00704783
2766	0.00688765
2778	0.00416463
2790	0.0065673
2802	0.011693
2814	0.0213037
2826	0.0297931
2838	0.070158
2850	0.145281
2862	0.128623
2874	0.0743226
2886	0.0658332
2898	0.0699978
2910	0.104596
2922	0.160659
2934	0.178118
2946	0.232258
2958	0.258848
2970	0.211275
2982	0.12558
2994	0.111964
3006	0.195417
3018	0.176837
3030	0.0922625
3042	0.111644
3054	0.186447
3066	0.226492
3078	0.169789
3090	0.109882
3102	0.065673
3114	0.0402047
3126	0.0227453
3138	0.0166585
3150	0.00929032
3162	0.00640712
3174	0.00752837
3186	0.00432481
3198	0.00368409
3210	0.00416463
3222	0.00432481
3234	0.00256285
3246	0.00464516
3258	0.00416463
3270	0.00560623
3282	0.00400445
3294	0.00272303
3306	0.00272303
3318	0.00240267
3330	0.00320356
3342	0.00624694
3354	0.00496552
3366	0.00448498
3378	0.00448498
3390	0.00400445
3402	0.00400445
3414	0.00448498
3426	0.00336374
3438	0.0028832
3450	0.000320356
3462	0.00528587
3474	0.000961068
3486	0.00464516
3498	0.00320356
3510	0.0051257
3522	0.00560623
3534	0.0080089
3546	0.011693
3558	0.0310745
3570	0.137753
3582	0.505362
3594	0.645678
3606	0.274545
3618	0.0397241
3630	0.0251479
3642	0.0581446
3654	0.0919422
3666	0.0682358
3678	0.013455
3690	0.00416463
3702	0.00528587
3714	0.00496552
3726	0.00448498
3738	0.00528587
3750	0.00768854
3762	0.00480534
3774	0.00464516
3786	0.00528587
3798	0.00736819
3810	0.00704783
3822	0.00272303
3834	0.0094505
3846	0.00560623
3858	0.00961068
3870	0.0145762
3882	0.0094505
3894	0.0140957
3906	0.00977086
3918	0.00896997
3930	0.013455
3942	0.00704783
3954	0.0128142
3966	0.0129744
