Infrared Spectrum: Benzaldehyde, 2-hydroxy-
Formula: C 7 H 6 O 2
CAS: 90-02-8
Origin: Sadtler Research Labs Under US-EPA Contract
1/CM	ABSORBANCE
450	0.0863696
462	0.0425055
474	0.0298897
486	0.0265902
498	0.0374592
510	0.0279488
522	0.0403705
534	0.0601676
546	0.0461932
558	0.0547331
570	0.0473577
582	0.0322188
594	0.0324129
606	0.0407587
618	0.0578385
630	0.04794
642	0.0322188
654	0.0704543
666	0.17041
678	0.185355
690	0.155271
702	0.265708
714	0.334221
726	0.210781
738	0.248434
750	0.36974
762	0.389148
774	0.249404
786	0.0322188
798	0.00232907
810	0.00582267
822	0.00640494
834	0.00426996
846	0.0120335
858	0.0260079
870	0.0599735
882	0.214662
894	0.190013
906	0.00718129
918	0.00465814
930	0.00718129
942	0.015333
954	0.0116453
966	0.00834583
978	0.0069872
990	0.00951036
1002	0.00912218
1014	0.0223202
1026	0.0626907
1038	0.0535686
1050	0.00679311
1062	0.0034936
1074	0.00135862
1086	0.000582267
1098	0.0118394
1110	0.056674
1122	0.0562858
1134	0.0832642
1146	0.233295
1158	0.248046
1170	0.144984
1182	0.170604
1194	0.304332
1206	0.328787
1218	0.209034
1230	0.217574
1242	0.124993
1254	0.0601676
1266	0.196806
1278	0.573727
1290	0.739091
1302	0.336744
1314	0.078606
1326	0.100344
1338	0.121694
1350	0.0935509
1362	0.0669607
1374	0.14382
1386	0.182444
1398	0.168081
1410	0.162841
1422	0.157018
1434	0.11723
1446	0.127516
1458	0.279294
1470	0.362752
1482	0.367993
1494	0.317918
1506	0.115483
1518	0.0337715
1530	0.0176621
1542	0.00659903
1554	0.0250375
1566	0.0826819
1578	0.228637
1590	0.296568
1602	0.195059
1614	0.276577
1626	0.31326
1638	0.208257
1650	0.216603
1662	0.331892
1674	1.71769
1686	1.74253
1698	0.27813
1710	0.106555
1722	0.080741
1734	0.0194089
1746	0.00485222
1758	0.00892809
1770	0.0100926
1782	0.0114513
1794	0.0133921
1806	0.0139744
1818	0.00776356
1830	0.00640494
1842	0.00659903
1854	0.00679311
1866	0.00737538
1878	0.0139744
1890	0.00912218
1902	0.00659903
1914	0.0102867
1926	0.0110631
1938	0.00795765
1950	0.0145567
1962	0.0118394
1974	0.00446405
1986	0.00407587
1998	0.00310542
2010	0.00271725
2022	0.00213498
2034	0.0034936
2046	0.00485222
2058	0.00426996
2070	0.000582267
2082	0.00562858
2094	0.00737538
2106	0.00310542
2118	0.0017468
2130	0.000776356
2142	0.000776356
2154	0.00252316
2166	0.00446405
2178	0.00465814
2190	0.00252316
2202	0.00252316
2214	0.00232907
2226	0.0034936
2238	0.00504631
2250	0.00407587
2262	0.00407587
2274	0.00291133
2286	0.00155271
2298	0.00329951
2310	0.0052404
2322	0.00601676
2334	0.00485222
2346	0.00679311
2358	0.0114513
2370	0.000194089
2382	0.00213498
2394	0.00407587
2406	0.00194089
2418	0.000582267
2430	0.000194089
2442	0.000388178
2454	0.000970445
2466	0.00213498
2478	0.00310542
2490	0.00426996
2502	0.00659903
2514	0.00582267
2526	0.00194089
2538	0.000194089
2550	0.00291133
2562	0.00601676
2574	0.00834583
2586	0.00737538
2598	0.00737538
2610	0.0114513
2622	0.0122276
2634	0.013004
2646	0.0106749
2658	0.0122276
2670	0.0110631
2682	0.0106749
2694	0.0135862
2706	0.017468
2718	0.0186325
2730	0.037071
2742	0.117618
2754	0.118588
2766	0.0355183
2778	0.0221261
2790	0.0293074
2802	0.0461932
2814	0.0914159
2826	0.212722
2838	0.282205
2850	0.188072
2862	0.0512395
2874	0.0236789
2886	0.019603
2898	0.0161094
2910	0.0157212
2922	0.0166917
2934	0.0170798
2946	0.0161094
2958	0.0151389
2970	0.0131981
2982	0.0102867
2994	0.0102867
3006	0.017468
3018	0.0306661
3030	0.0467754
3042	0.0557035
3054	0.0648257
3066	0.085011
3078	0.107137
3090	0.0819056
3102	0.0535686
3114	0.0411469
3126	0.0459991
3138	0.0562858
3150	0.0751124
3162	0.0832642
3174	0.0929686
3186	0.120335
3198	0.146343
3210	0.140909
3222	0.117424
3234	0.09588
3246	0.078606
3258	0.0659903
3270	0.061138
3282	0.063273
3294	0.0659903
3306	0.0646316
3318	0.0621085
3330	0.0621085
3342	0.0638553
3354	0.063273
3366	0.0541508
3378	0.0463873
3390	0.0407587
3402	0.0382355
3414	0.0359065
3426	0.032607
3438	0.0295015
3450	0.026202
3462	0.0225143
3474	0.0197971
3486	0.0159153
3498	0.0124217
3510	0.00989854
3522	0.00601676
3534	0.00718129
3546	0.00601676
3558	0.00504631
3570	0.00388178
3582	0.00465814
3594	0.0034936
3606	0.00310542
3618	0.00310542
3630	0.00271725
3642	0.00310542
3654	0.00213498
3666	0.00213498
3678	0.00252316
3690	0.00407587
3702	0.000194089
3714	0.000582267
3726	0.00213498
3738	0.000194089
3750	0.00155271
3762	0.00135862
3774	0.00155271
3786	0.000970445
3798	0.000194089
3810	0.000194089
3822	0.000194089
3834	0.000194089
3846	0.000194089
3858	0.000194089
3870	0.000194089
3882	0.000194089
3894	0.000194089
3906	0.000194089
3918	0.000194089
3930	0.00194089
3942	0.00194089
3954	0.000194089
3966	0.000194089
