Infrared Spectrum: Phenol, 2-ethyl-
Formula: C 8 H 10 O
CAS: 90-00-6
Origin: Sadtler Research Labs Under US-EPA Contract
1/CM	ABSORBANCE
450	0.0121788
462	0.0340527
474	0.0789221
486	0.0374179
498	0.0198708
510	0.0344533
522	0.0457508
534	0.0345334
546	0.0145826
558	0.00897389
570	0.0125795
582	0.0233962
594	0.0195503
606	0.00881364
618	0.00488756
630	0.00384595
642	0.00464719
654	0.00104161
666	0.00040062
678	0.00512794
690	0.0133006
702	0.0312484
714	0.0583303
726	0.140698
738	0.402863
750	0.80124
762	0.312243
774	0.0467924
786	0.0245179
798	0.0205919
810	0.0201111
822	0.0640992
834	0.194381
846	0.177555
858	0.0427862
870	0.0145024
882	0.00761178
894	0.00416645
906	0.00640992
918	0.0126596
930	0.0266012
942	0.0191496
954	0.0246782
966	0.0393409
978	0.0330912
990	0.0192298
1002	0.0152236
1014	0.0246782
1026	0.0521607
1038	0.0890979
1050	0.118183
1062	0.0959084
1074	0.0564073
1086	0.067865
1098	0.232039
1110	0.361279
1122	0.217777
1134	0.0846109
1146	0.149271
1158	0.283799
1170	0.388762
1182	0.378426
1194	0.463277
1206	0.566236
1218	0.378586
1230	0.207922
1242	0.263287
1254	0.462075
1266	0.430186
1278	0.176193
1290	0.0907004
1302	0.10336
1314	0.256477
1326	0.353267
1338	0.182282
1350	0.0436676
1362	0.0313285
1374	0.0345334
1386	0.0433471
1398	0.0342129
1410	0.0233962
1422	0.033572
1434	0.0666632
1446	0.231078
1458	0.415924
1470	0.315689
1482	0.260403
1494	0.425298
1506	0.363843
1518	0.132846
1530	0.0430266
1542	0.0349341
1554	0.0350142
1566	0.0507986
1578	0.137974
1590	0.237247
1602	0.201031
1614	0.120106
1626	0.0574489
1638	0.0182683
1650	0.013541
1662	0.0161049
1674	0.0260403
1686	0.0193099
1698	0.0133807
1710	0.00977513
1722	0.00793228
1734	0.00889376
1746	0.00985525
1758	0.0153037
1770	0.0191496
1782	0.0172267
1794	0.0137813
1806	0.0102559
1818	0.00841302
1830	0.00624967
1842	0.00745153
1854	0.00817265
1866	0.00729128
1878	0.016826
1890	0.0251589
1902	0.0157043
1914	0.0137813
1926	0.0179478
1938	0.0110571
1950	0.00336521
1962	0.00184285
1974	0.00208322
1986	0.00352546
1998	0.00352546
2010	0.00304471
2022	0.00328508
2034	0.00328508
2046	0.00352546
2058	0.00320496
2070	0.00360558
2082	0.00544843
2094	0.0056888
2106	0.0036857
2118	0.00184285
2130	0.000881364
2142	0.000480744
2154	0.00104161
2166	0.000640992
2178	8.0124e-05
2190	0.000240372
2202	0.000480744
2214	0.00112174
2226	0.0016826
2238	0.0016826
2250	0.00160248
2262	0.00216335
2274	0.00264409
2286	0.00344533
2298	0.00440682
2310	0.00560868
2322	0.00721116
2334	0.00705091
2346	0.00689066
2358	0.00488756
2370	0.00616955
2382	0.0043267
2394	0.00384595
2406	0.00552856
2418	0.00857327
2430	0.0104962
2442	0.0100155
2454	0.00825277
2466	0.00729128
2478	0.00624967
2490	0.00640992
2502	0.00689066
2514	0.00640992
2526	0.00560868
2538	0.00440682
2550	0.0036857
2562	0.00336521
2574	0.00312484
2586	0.00248384
2598	0.00304471
2610	0.0040062
2622	0.00665029
2634	0.00921426
2646	0.00913414
2658	0.00592918
2670	0.00360558
2682	0.00304471
2694	0.00360558
2706	0.00408632
2718	0.00440682
2730	0.00576893
2742	0.0080124
2754	0.00785215
2766	0.0080124
2778	0.0108969
2790	0.0125795
2802	0.0134608
2814	0.0152236
2826	0.0189093
2838	0.028444
2850	0.050398
2862	0.101197
2874	0.175231
2886	0.233001
2898	0.196224
2910	0.163213
2922	0.174029
2934	0.235164
2946	0.312403
2958	0.298222
2970	0.498051
2982	0.531382
2994	0.196464
3006	0.0944662
3018	0.127317
3030	0.212409
3042	0.224507
3054	0.166097
3066	0.18076
3078	0.201592
3090	0.140457
3102	0.0741948
3114	0.0386198
3126	0.022595
3138	0.0132205
3150	0.0104962
3162	0.010977
3174	0.0124192
3186	0.0104962
3198	0.00737141
3210	0.00488756
3222	0.00440682
3234	0.0040062
3246	0.00336521
3258	0.00344533
3270	0.00312484
3282	0.00328508
3294	0.00336521
3306	0.00352546
3318	0.00384595
3330	0.00440682
3342	0.00616955
3354	0.00681054
3366	0.00745153
3378	0.0080124
3390	0.00673042
3402	0.00576893
3414	0.00608942
3426	0.00520806
3438	0.00536831
3450	0.0040062
3462	0.00352546
3474	0.00376583
3486	0.00304471
3498	0.00208322
3510	0.00248384
3522	0.0023236
3534	0.00256397
3546	0.00248384
3558	0.0023236
3570	0.00256397
3582	0.00488756
3594	0.00608942
3606	0.0076919
3618	0.016185
3630	0.0475937
3642	0.297981
3654	0.49084
3666	0.267614
3678	0.0267614
3690	0.00729128
3702	0.00552856
3714	0.0020031
3726	0.00240372
3738	0.00344533
3750	0
3762	0.00376583
3774	0.00424657
3786	0.00256397
3798	0.00320496
3810	0.00152236
3822	0.00384595
3834	0.00344533
3846	0.00640992
3858	0.00761178
3870	0.00793228
3882	0.00544843
3894	0.0076919
3906	0.00576893
3918	0.00897389
3930	0.00793228
3942	0.00721116
3954	0.0056888
3966	0.00673042
