Infrared Spectrum: Naphthalene, 1-chloro-
Formula: C 10 H 7 Cl
CAS: 90-13-1
Origin: Sadtler Research Labs Under US-EPA Contract
1/CM	ABSORBANCE
450	0.00964379
462	0.0155929
474	0.0325008
486	0.00538549
498	0.0198512
510	0.020039
522	0.0148414
534	0.0618079
546	0.0469039
558	0.000751464
570	0.0123365
582	0.015906
594	0.0263639
606	0.0286809
618	0.0150293
630	0.00732677
642	0.0110215
654	0.026677
666	0.130254
678	0.0406417
690	0.00619958
702	0.00951854
714	0.00807824
726	0.0196007
738	0.0468413
750	0.120485
762	0.384374
774	0.306597
786	0.345172
798	0.299897
810	0.130379
822	0.129502
834	0.0963126
846	0.0576122
858	0.0504107
870	0.0222308
882	0.0288687
894	0.0169079
906	0.0107084
918	0.0180978
930	0.0212915
942	0.0312484
954	0.0487199
966	0.217987
978	0.242848
990	0.062622
1002	0.0151545
1014	0.0427082
1026	0.0530408
1038	0.0132132
1050	0.0225439
1062	0.047217
1074	0.0417689
1086	0.0274284
1098	0.0370096
1110	0.0619958
1122	0.0965005
1134	0.091115
1146	0.0980034
1158	0.0284304
1170	0.017221
1182	0.0240468
1194	0.0823479
1206	0.119733
1218	0.0284304
1230	0.0146535
1242	0.0290566
1254	0.0745202
1266	0.0545438
1278	0.0149667
1290	0.00782775
1302	0.0190997
1314	0.0229197
1326	0.028493
1338	0.0254245
1350	0.0314362
1362	0.050035
1374	0.142089
1386	0.18724
1398	0.0670055
1410	0.0221682
1422	0.0229823
1434	0.0258003
1446	0.0224187
1458	0.0385125
1470	0.0222934
1482	0.0170332
1494	0.0596788
1506	0.126684
1518	0.0520389
1530	0.0148414
1542	0.0146535
1554	0.0405791
1566	0.103201
1578	0.0954359
1590	0.0820348
1602	0.0547316
1614	0.0227318
1626	0.0261134
1638	0.0223561
1650	0.0173463
1662	0.0134011
1674	0.0171584
1686	0.0276163
1698	0.0177846
1710	0.0169079
1722	0.0169706
1734	0.0155929
1746	0.0207279
1758	0.0162817
1770	0.0142152
1782	0.0203521
1794	0.0211662
1806	0.0170958
1818	0.0142152
1830	0.0182856
1842	0.0187866
1854	0.0209784
1866	0.0100821
1878	0.00494714
1890	0.00663793
1902	0.0151545
1914	0.0273658
1926	0.0262386
1938	0.0184109
1950	0.0184735
1962	0.00795299
1974	0.00294323
1986	0.00237964
1998	0.00206653
2010	0.00281799
2022	0.00344421
2034	0.00469665
2046	0.00538549
2058	0.00450878
2070	0.00482189
2082	0.00319372
2094	0.00294323
2106	0.00306848
2118	0.0025675
2130	0.00194128
2142	0.00131506
2154	0.00144031
2166	0.00181604
2178	0.00231701
2190	0.00294323
2202	0.00275537
2214	0.00300586
2226	0.00363208
2238	0.00319372
2250	0.00344421
2262	0.00494714
2274	0.00519763
2286	0.00582385
2298	0.00763988
2310	0.00657531
2322	0.00469665
2334	0.00394519
2346	0.0056986
2358	0.00432092
2370	0.00782775
2382	0.00494714
2394	0.00500976
2406	0.00645007
2418	0.00632482
2430	0.00526025
2442	0.00432092
2454	0.00319372
2466	0.00413305
2478	0.00488452
2490	0.00338159
2502	0.00413305
2514	0.00388256
2526	0.00356945
2538	0.00381994
2550	0.00331897
2562	0.00407043
2574	0.00500976
2586	0.00381994
2598	0.00300586
2610	0.00250488
2622	0.000751464
2634	0.00125244
2646	0.00162817
2658	0.00125244
2670	0.00125244
2682	0.0031311
2694	0.00475927
2706	0.00576122
2718	0.00419567
2730	0.00344421
2742	0.00450878
2754	0.00482189
2766	0.00557336
2778	0.00551074
2790	0.00407043
2802	0.00419567
2814	0.00444616
2826	0.00338159
2838	0.00269275
2850	0.00388256
2862	0.00494714
2874	0.00469665
2886	0.00563598
2898	0.00444616
2910	0.00469665
2922	0.00457141
2934	0.00807824
2946	0.00958117
2958	0.00983165
2970	0.00782775
2982	0.00832873
2994	0.0127123
3006	0.0195381
3018	0.0325008
3030	0.042583
3042	0.0670682
3054	0.180289
3066	0.298269
3078	0.181291
3090	0.154739
3102	0.0737687
3114	0.0140273
3126	0.00507238
3138	0.00475927
3150	0.00356945
3162	0.00469665
3174	0.00281799
3186	0.00275537
3198	0.00294323
3210	0.00237964
3222	0.00269275
3234	0.00250488
3246	0.00150293
3258	0.00175342
3270	0.00144031
3282	0.0025675
3294	0.00300586
3306	0.00338159
3318	0.0031311
3330	0.00413305
3342	0.00419567
3354	0.000751464
3366	0.00206653
3378	0.00131506
3390	0.00225439
3402	0.00250488
3414	0.00375732
3426	0.0031311
3438	0.00237964
3450	0.00356945
3462	0.00306848
3474	0.00344421
3486	0.00219177
3498	0.00319372
3510	0.00344421
3522	0.00375732
3534	0.0031311
3546	0.00400781
3558	0.00269275
3570	0.00269275
3582	0.00363208
3594	0.00206653
3606	0.00463403
3618	0.00144031
3630	0.0036947
3642	0.00288061
3654	0.00212915
3666	0.00125244
3678	0.00407043
3690	0.00181604
3702	0.00494714
3714	0.00325634
3726	0.00538549
3738	0.00601171
3750	0.00632482
3762	0.0036947
3774	0.00375732
3786	0.0036947
3798	0.00175342
3810	0.00363208
3822	0.00519763
3834	0
3846	0.00594909
3858	0.0093933
3870	0.005135
3882	0.00131506
3894	0.0101448
3906	0.00212915
3918	0.00563598
3930	6.2622e-05
3942	0.00356945
3954	0.00344421
3966	0.000876708
