Infrared Spectrum: Naphthalene, 1-bromo-
Formula: C 10 H 7 Br
CAS: 90-11-9
Origin: Sadtler Research Labs Under US-EPA Contract
1/CM	ABSORBANCE
450	0.0582087
462	0.0619971
474	0.0529634
486	0.0315449
498	0.034969
510	0.0445854
522	0.10498
534	0.0754018
546	0.0205443
558	0.0131862
570	0.0204714
582	0.0284851
594	0.0148618
606	0.017703
618	0.0193786
630	0.0148618
642	0.0721963
654	0.209741
666	0.0114378
678	0.0113649
690	0.00444397
702	0.00976217
714	0.0121663
726	0.0379559
738	0.0505593
750	0.143373
762	0.528396
774	0.374824
786	0.608096
798	0.374168
810	0.158016
822	0.064474
834	0.0515064
846	0.0318363
858	0.041817
870	0.0210542
882	0.0179944
894	0.0152261
906	0.00684809
918	0.012312
930	0.038393
942	0.127491
954	0.323681
966	0.202237
978	0.0242597
990	0.0190144
1002	0.0219285
1014	0.0572617
1026	0.0618513
1038	0.0116563
1050	0.0431284
1062	0.0700836
1074	0.0200343
1086	0.00786802
1098	0.013769
1110	0.0127491
1122	0.0256439
1134	0.116563
1146	0.0686266
1158	0.0321277
1170	0.035916
1182	0.0491751
1194	0.128147
1206	0.143664
1218	0.0390487
1230	0.0275381
1242	0.0461882
1254	0.130259
1266	0.0817399
1278	0.0146433
1290	0.0108549
1302	0.0128948
1314	0.018213
1326	0.023604
1338	0.031982
1350	0.0423999
1362	0.0678252
1374	0.18366
1386	0.236915
1398	0.056096
1410	0.0190144
1422	0.018213
1434	0.0222927
1446	0.0244054
1458	0.0228027
1470	0.0193786
1482	0.0213456
1494	0.10498
1506	0.167341
1518	0.0387573
1530	0.0134776
1542	0.0110007
1554	0.0813028
1566	0.167414
1578	0.0451682
1590	0.0895351
1602	0.0520892
1614	0.0295779
1626	0.0317635
1638	0.0101264
1650	0.0126762
1662	0.0129677
1674	0.0174845
1686	0.0278295
1698	0.0130405
1710	0.0229484
1722	0.0209814
1734	0.0217099
1746	0.0413071
1758	0.0477909
1770	0.0236769
1782	0.0249882
1794	0.0292865
1806	0.0230212
1818	0.0182859
1830	0.0189415
1842	0.0205443
1854	0.0260082
1866	0.0163917
1878	0.00641098
1890	0.00735805
1902	0.0207628
1914	0.0348961
1926	0.0357703
1938	0.0214185
1950	0.0266638
1962	0.00794087
1974	0.00553675
1986	0.00415256
1998	0.00335119
2010	0.00517249
2022	0.00269552
2034	0.00641098
2046	0.00371545
2058	0.00604672
2070	0.00502679
2082	0.00495394
2094	0.00466253
2106	0.00276838
2118	0.00641098
2130	0.00371545
2142	0.00517249
2154	0.00247697
2166	0.00407971
2178	0.00342404
2190	0.00371545
2202	0.00553675
2214	0.00327834
2226	0.00509964
2238	0.00305978
2250	0.00568246
2262	0.00509964
2274	0.00495394
2286	0.0074309
2298	0.00458968
2310	0.00757661
2322	0.000874224
2334	0.0037883
2346	0.000874224
2358	0.000874224
2370	0.0037883
2382	0.00444397
2394	0.00772231
2406	0.00553675
2418	0.0107821
2430	0.00276838
2442	0.00458968
2454	0.00335119
2466	0.00415256
2478	0.0053182
2490	0.00254982
2502	0.00488108
2514	0.00225841
2526	0.00495394
2538	0.00225841
2550	0.00393401
2562	0.00451682
2574	0.00495394
2586	0.00488108
2598	0.00393401
2610	0.00415256
2622	0.00320549
2634	0.00473538
2646	0.00451682
2658	0.0034969
2670	0.00429827
2682	0.00393401
2694	0.00845083
2706	0.00335119
2718	0.00400686
2730	0.00254982
2742	0.00335119
2754	0.00400686
2766	0.0034969
2778	0.0037883
2790	0.0036426
2802	0.00575531
2814	0.00335119
2826	0.00772231
2838	0.00429827
2850	0.00655668
2862	0.00859654
2874	0.00998072
2886	0.0159546
2898	0.00990787
2910	0.0132591
2922	0.0148618
2934	0.0198886
2946	0.0266638
2958	0.0269552
2970	0.0283394
2982	0.0222927
2994	0.0245511
3006	0.028558
3018	0.0429827
3030	0.0537648
3042	0.0850911
3054	0.218119
3066	0.413144
3078	0.212946
3090	0.201654
3102	0.0739448
3114	0.0163188
3126	0.0128948
3138	0.00903365
3150	0.00881509
3162	0.0109278
3174	0.00874224
3186	0.00794087
3198	0.00706664
3210	0.00772231
3222	0.00670238
3234	0.00655668
3246	0.00619242
3258	0.00662953
3270	0.00794087
3282	0.00677524
3294	0.00662953
3306	0.00670238
3318	0.00611957
3330	0.00808657
3342	0.00604672
3354	0.0072852
3366	0.00692094
3378	0.00764946
3390	0.00648383
3402	0.00823228
3414	0.00568246
3426	0.00874224
3438	0.00626527
3450	0.00779516
3462	0.00815942
3474	0.0074309
3486	0.00677524
3498	0.00553675
3510	0.00801372
3522	0.00706664
3534	0.00794087
3546	0.00968932
3558	0.00968932
3570	0.00735805
3582	0.00837798
3594	0.00823228
3606	0.00866939
3618	0.0054639
3630	0.000582816
3642	0.0072852
3654	0.00313264
3666	0.00750376
3678	0.0037883
3690	0.00407971
3702	0.00684809
3714	0.00313264
3726	0.00648383
3738	0.00422542
3750	0.00101993
3762	0.0056096
3774	0.0071395
3786	0.00903365
3798	0.0053182
3810	0.00335119
3822	0.00203986
3834	0.00262267
3846	0.00429827
3858	0.0072852
3870	0.00313264
3882	0.00342404
3894	0.00298693
3906	0.00240412
3918	0.00269552
3930	0.00393401
3942	0.00393401
3954	0.000582816
3966	0.000874224
