Infrared Spectrum: 1-Naphthalenol
Formula: C 10 H 8 O
CAS: 90-15-3
Origin: Sadtler Research Labs Under US-EPA Contract
1/CM	ABSORBANCE
450	0.0516363
462	0.0170533
474	0.029105
486	0.0123851
498	0.0150527
510	0.0184824
522	0.0383462
534	0.022055
546	0.0208641
558	0.0434908
570	0.041633
582	0.0347259
594	0.00238175
606	0.0123375
618	0.0221026
630	0.00609728
642	0.00852666
654	0.0111942
666	0.00738342
678	0.00290574
690	0.0115753
702	0.0277712
714	0.0451103
726	0.0254847
738	0.0309628
750	0.105559
762	0.296004
774	0.258753
786	0.213595
798	0.121565
810	0.0335827
822	0.0145763
834	0.0157195
846	0.0214357
858	0.0261993
870	0.0489211
882	0.0498262
894	0.0184824
906	0.00847903
918	0.0124327
930	0.0138142
942	0.0117182
954	0.0183395
966	0.0151956
978	0.0108608
990	0.0161006
1002	0.0397752
1014	0.0722147
1026	0.0691184
1038	0.100367
1050	0.0787407
1062	0.0341543
1074	0.0961274
1086	0.112276
1098	0.0343925
1110	0.0195304
1122	0.0246749
1134	0.0637833
1146	0.109942
1158	0.101034
1170	0.0967943
1182	0.156052
1194	0.16858
1206	0.119278
1218	0.0971754
1230	0.138094
1242	0.191207
1254	0.142238
1266	0.159339
1278	0.166818
1290	0.0677846
1302	0.034583
1314	0.023103
1326	0.0181489
1338	0.0307246
1350	0.0692613
1362	0.0815511
1374	0.0897443
1386	0.113133
1398	0.143477
1410	0.116039
1422	0.0409185
1434	0.0337732
1446	0.0560664
1458	0.079741
1470	0.0559235
1482	0.0276283
1494	0.0325347
1506	0.0736437
1518	0.0960798
1530	0.0464918
1542	0.0278188
1554	0.0354881
1566	0.0716907
1578	0.124899
1590	0.154623
1602	0.127185
1614	0.0620684
1626	0.0451103
1638	0.0461583
1650	0.0246749
1662	0.00947937
1674	0.0101463
1686	0.0107179
1698	0.00805032
1710	0.010051
1722	0.00990808
1734	0.00590674
1746	0.00514458
1758	0.00614491
1770	0.00547803
1782	0.00600201
1794	0.00790741
1806	0.00814559
1818	0.0113848
1830	0.0117182
1842	0.00714525
1854	0.00443006
1866	0.00328682
1878	0.00409661
1890	0.00947937
1902	0.0162435
1914	0.0145763
1926	0.0115753
1938	0.0108131
1950	0.00852666
1962	0.00428715
1974	0.00261992
1986	0.00300101
1998	0.00209594
2010	0.00176249
2022	0.00209594
2034	0.00195304
2046	0.00228648
2058	0.00276283
2070	0.00338208
2082	0.00314391
2094	0.00304864
2106	0.00276283
2118	0.0027152
2130	0.00233411
2142	0.00228648
2154	0.00328682
2166	0.00328682
2178	0.00261992
2190	0.00209594
2202	0.0019054
2214	0.00214357
2226	0.00233411
2238	0.00304864
2250	0.00323918
2262	0.00304864
2274	0.00428715
2286	0.0047635
2298	0.00519222
2310	0.0058591
2322	0.00581147
2334	0.00538276
2346	0.00609728
2358	0.00676417
2370	0.00328682
2382	0.00423952
2394	0.00276283
2406	0.00290574
2418	0.00309627
2430	0.00362026
2442	0.00300101
2454	0.00257229
2466	0.00261992
2478	0.00161959
2490	0.00114324
2502	0.00114324
2514	0.00185776
2526	0.00128615
2538	0.00133378
2550	0.00047635
2562	0.000809795
2574	0.000238175
2586	0.00100033
2598	0.0009527
2610	0.00028581
2622	0.000428715
2634	0.0009527
2646	0.000905065
2658	0.00171486
2670	0.0010956
2682	0.00038108
2694	0.000905065
2706	0.00028581
2718	0.00057162
2730	0.00114324
2742	0.00185776
2754	0.00195304
2766	0.00128615
2778	0.00128615
2790	0.00138141
2802	0.00161959
2814	0.0020483
2826	0.00309627
2838	0.00609728
2850	0.0108131
2862	0.00919356
2874	0.00614491
2886	0.00652599
2898	0.00905065
2910	0.0127185
2922	0.0191969
2934	0.0161959
2946	0.00981281
2958	0.0104797
2970	0.00971754
2982	0.00662127
2994	0.00766923
3006	0.0152432
3018	0.0320107
3030	0.0498738
3042	0.072691
3054	0.138808
3066	0.176535
3078	0.134331
3090	0.0688802
3102	0.0344401
3114	0.0151479
3126	0.00238175
3138	0.000619255
3150	0.000809795
3162	0.00166723
3174	0.00257229
3186	0.00304864
3198	0.00233411
3210	0.00133378
3222	0.00290574
3234	0.00247702
3246	0.00238175
3258	0.00266756
3270	0.00238175
3282	0.00300101
3294	0.00233411
3306	0.00357262
3318	0.00357262
3330	0.00514458
3342	0.00581147
3354	0.00471586
3366	0.00395371
3378	0.00462059
3390	0.00404897
3402	0.00414425
3414	0.00514458
3426	0.00457296
3438	0.00495404
3450	0.0036679
3462	0.00238175
3474	0.00247702
3486	0.00114324
3498	0.00266756
3510	0.00147668
3522	0.00257229
3534	0.00295337
3546	0.00152432
3558	0.00147668
3570	0.00219121
3582	0.00385843
3594	0.00414425
3606	0.00338208
3618	0.0066689
3630	0.0246749
3642	0.126185
3654	0.206593
3666	0.0662603
3678	0.00547803
3690	0.0028581
3702	0.000238175
3714	4.7635e-05
3726	0
3738	0
3750	0.00057162
3762	0.0009527
3774	0.00100033
3786	0.000333445
3798	0.00309627
3810	0.0049064
3822	4.7635e-05
3834	0.00228648
3846	0.00242939
3858	0.00523985
3870	0.00223885
3882	0.00223885
3894	0.0010956
3906	0.00057162
3918	0.00504931
3930	0.00400134
3942	0.00342972
3954	0.00604965
3966	0.00481114
