Infrared Spectrum: Benzenesulfonamide, N-methyl-N-phenyl-
Formula: C 13 H 13 N O 2 S
CAS: 90-10-8
Origin: Sadtler Research Labs Under US-EPA Contract
1/CM	ABSORBANCE
450	0
462	0.00469039
474	0.0103859
486	0.0178682
498	0.0153555
510	0.0195991
522	0.0223352
534	0.0371881
546	0.071361
558	0.304261
570	0.335866
582	0.198951
594	0.506618
606	0.134123
618	0.0498075
630	0.0247921
642	0.0227261
654	0.034452
666	0.054107
678	0.120163
690	0.486907
702	0.206098
714	0.0936403
726	0.414095
738	0.214139
750	0.122732
762	0.170529
774	0.0715843
786	0.0343404
798	0.0323302
810	0.035513
822	0.0391983
834	0.049975
846	0.0934728
858	0.267632
870	0.329835
882	0.164666
894	0.0709701
906	0.0749904
918	0.0634878
930	0.0246246
942	0.0160813
954	0.0152438
966	0.0176448
978	0.017924
990	0.0207717
1002	0.0332236
1014	0.0357922
1026	0.113742
1038	0.049975
1050	0.0608076
1062	0.173154
1074	0.227484
1086	0.200905
1098	0.173209
1110	0.0585182
1122	0.0493608
1134	0.0558938
1146	0.0996708
1158	0.275561
1170	0.477024
1182	0.520857
1194	0.293205
1206	0.0801275
1218	0.0452288
1230	0.0454521
1242	0.0590766
1254	0.0900667
1266	0.153443
1278	0.144118
1290	0.0765539
1302	0.0513151
1314	0.0579598
1326	0.0686249
1338	0.100508
1350	0.150763
1362	0.345246
1374	0.55838
1386	0.267855
1398	0.0551679
1410	0.0365739
1422	0.0505892
1434	0.0531019
1446	0.131722
1458	0.0919652
1470	0.0755488
1482	0.11363
1494	0.2922
1506	0.0877215
1518	0.0324419
1530	0.0265789
1542	0.0252388
1554	0.0221118
1566	0.0236753
1578	0.0424927
1590	0.103133
1602	0.093752
1614	0.0288124
1626	0.0165839
1638	0.0146854
1650	0.0149087
1662	0.013792
1674	0.0178123
1686	0.016193
1698	0.0123402
1710	0.00932495
1722	0.011726
1734	0.0166956
1746	0.0159697
1758	0.0157463
1770	0.0163605
1782	0.0167514
1794	0.0168631
1806	0.0187616
1818	0.0140712
1830	0.011391
1842	0.0103859
1854	0.00904576
1866	0.0124519
1878	0.0139595
1890	0.0177565
1902	0.0146854
1914	0.0122844
1926	0.0104975
1938	0.0157463
1950	0.0184265
1962	0.0186499
1974	0.0121168
1986	0.00798483
1998	0.00703559
2010	0.00670056
2022	0.00664472
2034	0.00642137
2046	0.00642137
2058	0.00591883
2070	0.00591883
2082	0.00541629
2094	0.00569548
2106	0.00547212
2118	0.0055838
2130	0.0055838
2142	0.00569548
2154	0.00552796
2166	0.0055838
2178	0.00591883
2190	0.00547212
2202	0.0051371
2214	0.0051371
2226	0.00569548
2238	0.00608634
2250	0.00703559
2262	0.0072031
2274	0.00714726
2286	0.00692391
2298	0.00686807
2310	0.00804067
2322	0.0105534
2334	0.00893408
2346	0.00932495
2358	0.00737062
2370	0.00642137
2382	0.00692391
2394	0.0060305
2406	0.00575131
2418	0.0060305
2430	0.00625386
2442	0.00658888
2454	0.00681224
2466	0.00692391
2478	0.0067564
2490	0.00670056
2502	0.00697975
2514	0.00764981
2526	0.00854321
2538	0.00876657
2550	0.00843154
2562	0.00809651
2574	0.00776148
2586	0.00697975
2598	0.00709143
2610	0.00697975
2622	0.00709143
2634	0.00642137
2646	0.00642137
2658	0.00686807
2670	0.00737062
2682	0.00742645
2694	0.0060305
2706	0.00630969
2718	0.00647721
2730	0.00658888
2742	0.00709143
2754	0.00809651
2766	0.00781732
2778	0.00831986
2790	0.00938078
2802	0.0115585
2814	0.0166956
2826	0.0259647
2838	0.0208834
2850	0.0242895
2862	0.0273048
2874	0.0301525
2886	0.03998
2898	0.0500867
2910	0.0495841
2922	0.0556146
2934	0.0598583
2946	0.0596908
2958	0.0549446
2970	0.0539953
2982	0.0495841
2994	0.0270814
3006	0.0257972
3018	0.0343962
3030	0.0519852
3042	0.0665589
3054	0.065498
3066	0.117148
3078	0.167235
3090	0.0791783
3102	0.0516502
3114	0.0225027
3126	0.0131778
3138	0.0106651
3150	0.0107767
3162	0.0109442
3174	0.0100508
3186	0.007929
3198	0.00697975
3210	0.00647721
3222	0.00658888
3234	0.00597467
3246	0.00636553
3258	0.00670056
3270	0.00647721
3282	0.00619802
3294	0.0067564
3306	0.00597467
3318	0.00625386
3330	0.00614218
3342	0.00614218
3354	0.00625386
3366	0.00642137
3378	0.00653305
3390	0.00670056
3402	0.00653305
3414	0.00664472
3426	0.00658888
3438	0.00619802
3450	0.00692391
3462	0.00658888
3474	0.00670056
3486	0.00642137
3498	0.00636553
3510	0.00636553
3522	0.00580715
3534	0.00647721
3546	0.00642137
3558	0.0067564
3570	0.00597467
3582	0.00670056
3594	0.00653305
3606	0.00670056
3618	0.00586299
3630	0.00709143
3642	0.00580715
3654	0.00575131
3666	0.00658888
3678	0.00563964
3690	0.00709143
3702	0.00692391
3714	0.00647721
3726	0.00502542
3738	0.00508126
3750	0.00580715
3762	0.00591883
3774	0.00552796
3786	0.00547212
3798	0.00519293
3810	0.00530461
3822	0.00536045
3834	0.00502542
3846	0.0051371
3858	0.00502542
3870	0.00658888
3882	0.00502542
3894	0.0055838
3906	0.00530461
3918	0.00608634
3930	0.00591883
3942	0.00597467
3954	0.00597467
3966	0.00664472
