Infrared Spectrum: Benzenemethanol, .alpha.-(trichloromethyl)-, acetate
Formula: C 10 H 9 Cl 3 O 2
CAS: 90-17-5
Origin: Sadtler Research Labs Under US-EPA Contract
1/CM	ABSORBANCE
450	0.0133214
462	0.0044063
474	0.0154733
486	0.0076854
498	0.00901754
510	0.0175227
522	0.0761367
534	0.0408863
546	0.0156782
558	0.0131164
570	0.0136288
582	0.0269501
594	0.0261304
606	0.0826949
618	0.071423
630	0.0844369
642	0.0405789
654	0.040169
666	0.067529
678	0.0557448
690	0.10196
702	0.147252
714	0.0333034
726	0.0208018
738	0.0518508
750	0.139772
762	0.0317663
774	0.0779812
786	0.21222
798	0.224414
810	0.122249
822	0.0288971
834	0.0216216
846	0.0234661
858	0.0488791
870	0.08249
882	0.02736
894	0.0206993
906	0.029102
918	0.0761367
930	0.140387
942	0.0309465
954	0.0157807
966	0.0152683
978	0.0190598
990	0.0233636
1002	0.0282823
1014	0.0504162
1026	0.141514
1038	0.169899
1050	0.236608
1062	0.13721
1074	0.101345
1086	0.0969385
1098	0.0514409
1110	0.0427308
1122	0.0241834
1134	0.0226463
1146	0.0288971
1158	0.0395542
1170	0.0510311
1182	0.104214
1194	0.221852
1206	0.614934
1218	0.959343
1230	0.159037
1242	0.0649672
1254	0.0515434
1266	0.0399641
1278	0.0377097
1290	0.027565
1302	0.0286922
1314	0.0340207
1326	0.021929
1338	0.0202895
1350	0.0214166
1362	0.0559497
1374	0.165595
1386	0.0812603
1398	0.0285897
1410	0.0195722
1422	0.0200845
1434	0.0252081
1446	0.025618
1458	0.0387344
1470	0.0157807
1482	0.014756
1494	0.0326886
1506	0.023671
1518	0.0143461
1530	0.0148584
1542	0.0153708
1554	0.0125016
1566	0.0115793
1578	0.0125016
1590	0.0153708
1602	0.011067
1614	0.00901754
1626	0.00881259
1638	0.0101447
1650	0.0113744
1662	0.0125016
1674	0.014756
1686	0.0148584
1698	0.0156782
1710	0.0195722
1722	0.0243883
1734	0.0378122
1746	0.0445753
1758	0.0437555
1770	0.14469
1782	0.580606
1794	0.0976558
1806	0.0382221
1818	0.0308441
1830	0.022134
1842	0.0237735
1854	0.01824
1866	0.0104521
1878	0.0107596
1890	0.0112719
1902	0.0100423
1914	0.00748046
1926	0.00686562
1938	0.00778787
1950	0.0120917
1962	0.0107596
1974	0.00901754
1986	0.00819776
1998	0.00830023
2010	0.00922248
2022	0.00881259
2034	0.00727551
2046	0.00727551
2058	0.00645574
2070	0.00686562
2082	0.00625079
2094	0.00645574
2106	0.00655821
2118	0.00748046
2130	0.00881259
2142	0.00871012
2154	0.00604585
2166	0.00532854
2178	0.00522607
2190	0.00522607
2202	0.00471371
2214	0.00471371
2226	0.00491866
2238	0.00481618
2250	0.00461124
2262	0.00481618
2274	0.00471371
2286	0.00481618
2298	0.0051236
2310	0.00481618
2322	0.00481618
2334	0.00491866
2346	0.00655821
2358	0.00573843
2370	0.00573843
2382	0.00604585
2394	0.00553349
2406	0.00543102
2418	0.00573843
2430	0.00502113
2442	0.00420135
2454	0.00409888
2466	0.00450877
2478	0.00399641
2490	0.00420135
2502	0.00399641
2514	0.00399641
2526	0.00420135
2538	0.00409888
2550	0.00430382
2562	0.00471371
2574	0.00502113
2586	0.00471371
2598	0.00471371
2610	0.00491866
2622	0.00461124
2634	0.00502113
2646	0.00481618
2658	0.0051236
2670	0.00471371
2682	0.00481618
2694	0.0044063
2706	0.00502113
2718	0.00450877
2730	0.00409888
2742	0.00430382
2754	0.00471371
2766	0.00461124
2778	0.00481618
2790	0.00409888
2802	0.00491866
2814	0.00471371
2826	0.00379146
2838	0.00358652
2850	0.00174202
2862	0.00399641
2874	0.00389394
2886	0.00368899
2898	0.00338158
2910	0.00338158
2922	0
2934	0.00604585
2946	0.0141411
2958	0.0305367
2970	0.027565
2982	0.0103497
2994	0.0102472
3006	0.00942742
3018	0.0105546
3030	0.0180351
3042	0.0465223
3054	0.0374023
3066	0.0354553
3078	0.0555398
3090	0.0279749
3102	0.0269501
3114	0.0148584
3126	0.00942742
3138	0.00614832
3150	0.00543102
3162	0.00532854
3174	0.00573843
3186	0.00522607
3198	0.00450877
3210	0.00461124
3222	0.00430382
3234	0.00420135
3246	0.00409888
3258	0.00379146
3270	0.00409888
3282	0.00420135
3294	0.00430382
3306	0.00420135
3318	0.00409888
3330	0.00409888
3342	0.00430382
3354	0.00399641
3366	0.00450877
3378	0.00471371
3390	0.00471371
3402	0.00450877
3414	0.00461124
3426	0.0044063
3438	0.00491866
3450	0.00532854
3462	0.00471371
3474	0.00461124
3486	0.00481618
3498	0.00532854
3510	0.00502113
3522	0.00553349
3534	0.00686562
3546	0.00727551
3558	0.00420135
3570	0.00450877
3582	0.00522607
3594	0.00502113
3606	0.00543102
3618	0.00430382
3630	0.00522607
3642	0.00502113
3654	0.00543102
3666	0.00471371
3678	0.0058409
3690	0.0044063
3702	0.0051236
3714	0.00522607
3726	0.00379146
3738	0.0044063
3750	0.00532854
3762	0.00399641
3774	0.00450877
3786	0.0044063
3798	0.00502113
3810	0.00389394
3822	0.00491866
3834	0.00430382
3846	0.00481618
3858	0.00450877
3870	0.00502113
3882	0.00297169
3894	0.00532854
3906	0.00409888
3918	0.00471371
3930	0.00471371
3942	0.00573843
3954	0.00481618
3966	0.00481618
