Infrared Spectrum: Naphthalene, 1-methyl-
Formula: C 11 H 10
CAS: 90-12-0
Origin: Sadtler Research Labs Under US-EPA Contract
1/CM	ABSORBANCE
450	0
462	0.0287217
474	0.0413313
486	0.0442735
498	0.022487
510	0.0416815
522	0.0683717
534	0.102488
546	0.046305
558	0.0399302
570	0.0421719
582	0.031664
594	0.0299827
606	0.0276709
618	0.0322944
630	0.0235378
642	0.0280913
654	0.0284415
666	0.0229774
678	0.0325046
690	0.0428724
702	0.044904
714	0.0407708
726	0.0715942
738	0.056813
750	0.0804208
762	0.275378
774	0.510406
786	0.697378
798	0.341859
810	0.0990549
822	0.040911
834	0.0376885
846	0.0469355
858	0.0450441
870	0.0339057
882	0.030403
894	0.0325746
906	0.0318041
918	0.027811
930	0.0304731
942	0.0355869
954	0.0367778
966	0.0419617
978	0.0384591
990	0.0341158
1002	0.038389
1014	0.0733455
1026	0.0835032
1038	0.0381088
1050	0.0290019
1062	0.0318041
1074	0.0538708
1086	0.0477061
1098	0.0321543
1110	0.0367078
1122	0.0283014
1134	0.031734
1146	0.0350966
1158	0.0439232
1170	0.0473558
1182	0.0307533
1194	0.0294223
1206	0.0374784
1218	0.0387393
1230	0.027741
1242	0.030403
1254	0.0391596
1266	0.0507884
1278	0.0380388
1290	0.0280212
1302	0.0290019
1314	0.0309634
1326	0.0299126
1338	0.0327148
1350	0.0349564
1362	0.0352367
1374	0.0458147
1386	0.0848342
1398	0.138635
1410	0.0865155
1422	0.0565328
1434	0.075307
1446	0.0877064
1458	0.0747466
1470	0.0783893
1482	0.0512087
1494	0.0517692
1506	0.10515
1518	0.101437
1530	0.0420318
1542	0.0342559
1554	0.0350966
1566	0.0431526
1578	0.054221
1590	0.0789497
1602	0.0870759
1614	0.0497376
1626	0.0374784
1638	0.0342559
1650	0.0319442
1662	0.0360072
1674	0.043643
1686	0.0464451
1698	0.0350966
1710	0.0355869
1722	0.038389
1734	0.0420318
1746	0.0429425
1758	0.036988
1770	0.0328549
1782	0.0419617
1794	0.0469355
1806	0.0371981
1818	0.0402104
1830	0.0375484
1842	0.0332051
1854	0.0432928
1866	0.0365677
1878	0.0288618
1890	0.0321543
1902	0.0414013
1914	0.0545012
1926	0.05289
1938	0.0484767
1950	0.038319
1962	0.0272506
1974	0.0256394
1986	0.0252191
1998	0.0249389
2010	0.0254993
2022	0.0262699
2034	0.0268303
2046	0.0266201
2058	0.0276709
2070	0.0283715
2082	0.0272506
2094	0.0259897
2106	0.0256394
2118	0.0254292
2130	0.0252191
2142	0.0259897
2154	0.0256394
2166	0.0255693
2178	0.0252191
2190	0.0250089
2202	0.0249389
2214	0.0252891
2226	0.025149
2238	0.02648
2250	0.0268303
2262	0.0263399
2274	0.0260597
2286	0.0273907
2298	0.0274608
2310	0.029072
2322	0.0324345
2334	0.0321543
2346	0.0285116
2358	0.0306832
2370	0.025149
2382	0.0247287
2394	0.0255693
2406	0.0275308
2418	0.0292121
2430	0.0266902
2442	0.0258496
2454	0.0261998
2466	0.0254292
2478	0.0252891
2490	0.0249389
2502	0.0249389
2514	0.0243084
2526	0.0243084
2538	0.0246587
2550	0.0247287
2562	0.0240982
2574	0.0240982
2586	0.0240282
2598	0.023748
2610	0.0229774
2622	0.0236779
2634	0.0236079
2646	0.0225571
2658	0.023748
2670	0.0241683
2682	0.0248688
2694	0.0260597
2706	0.0252891
2718	0.025079
2730	0.0273907
2742	0.0332051
2754	0.0327848
2766	0.0278811
2778	0.0271105
2790	0.0292822
2802	0.0295624
2814	0.0301228
2826	0.0321543
2838	0.034326
2850	0.040911
2862	0.0606659
2874	0.0980742
2886	0.0905085
2898	0.0796503
2910	0.106411
2922	0.128617
2934	0.153136
2946	0.175623
2958	0.179966
2970	0.154957
2982	0.170019
2994	0.112505
3006	0.102277
3018	0.130509
3030	0.146691
3042	0.260807
3054	0.347883
3066	0.398461
3078	0.371211
3090	0.19839
3102	0.122943
3114	0.0729952
3126	0.0362875
3138	0.0306132
3150	0.0283014
3162	0.0271806
3174	0.0283715
3186	0.0287217
3198	0.0254292
3210	0.0270405
3222	0.0283715
3234	0.0263399
3246	0.0238881
3258	0.0239581
3270	0.0247287
3282	0.0243784
3294	0.0231875
3306	0.0234678
3318	0.0241683
3330	0.0247287
3342	0.0243784
3354	0.023818
3366	0.0243784
3378	0.023748
3390	0.0254993
3402	0.0258496
3414	0.0271806
3426	0.0247988
3438	0.0254292
3450	0.0250089
3462	0.0265501
3474	0.0270405
3486	0.0280913
3498	0.0267602
3510	0.0274608
3522	0.0257795
3534	0.0273207
3546	0.0261298
3558	0.025149
3570	0.0250089
3582	0.025079
3594	0.0260597
3606	0.0241683
3618	0.0263399
3630	0.0274608
3642	0.02648
3654	0.0261998
3666	0.0243784
3678	0.0267602
3690	0.0273207
3702	0.0262699
3714	0.0263399
3726	0.0259196
3738	0.0250089
3750	0.0242383
3762	0.0269004
3774	0.027741
3786	0.0292121
3798	0.0269004
3810	0.0294923
3822	0.0292822
3834	0.0253592
3846	0.030403
3858	0.0308934
3870	0.0271105
3882	0.0332051
3894	0.0233977
3906	0.0319442
3918	0.031734
3930	0.0259897
3942	0.025149
3954	0.0299827
3966	0.0272506
