Infrared Spectrum: Ethanone, 1-(2-hydroxy-4,6-dimethoxyphenyl)-
Formula: C 10 H 12 O 4
CAS: 90-24-4
Origin: Sadtler Research Labs Under US-EPA Contract
1/CM	ABSORBANCE
450	0.0044262
462	0.00405735
474	0.00350408
486	0.00141393
498	0.00620898
510	0.0063934
522	0.0185655
534	0.0192417
546	0.0258195
558	0.0259425
570	0.022131
582	0.0416186
594	0.0453686
606	0.0167827
618	0.0136475
630	0.0146311
642	0.0235449
654	0.0267416
666	0.0241597
678	0.0256966
690	0.025758
702	0.0204097
714	0.0180122
726	0.0245285
738	0.0277867
750	0.0242212
762	0.0152458
774	0.0189343
786	0.0239138
798	0.0336883
810	0.0459218
822	0.092151
834	0.0820077
846	0.0539136
858	0.0354711
870	0.0255736
882	0.0184425
894	0.0152458
906	0.0124794
918	0.0145081
930	0.0237293
942	0.0389752
954	0.0512087
966	0.045553
978	0.0176433
990	0.0186269
1002	0.0215163
1014	0.0177663
1026	0.0266802
1038	0.0435243
1050	0.0384833
1062	0.0304301
1074	0.0548357
1086	0.0641184
1098	0.0784421
1110	0.16088
1122	0.222785
1134	0.109794
1146	0.156946
1158	0.381698
1170	0.192109
1182	0.121413
1194	0.181597
1206	0.386063
1218	0.396637
1230	0.135798
1242	0.149938
1254	0.33344
1266	0.312723
1278	0.235326
1290	0.22174
1302	0.149999
1314	0.123811
1326	0.0646717
1338	0.0350408
1350	0.0421719
1362	0.134569
1374	0.136474
1386	0.0744462
1398	0.0871716
1410	0.150306
1422	0.208646
1434	0.16506
1446	0.128237
1458	0.116557
1470	0.136597
1482	0.0782577
1494	0.060184
1506	0.0588316
1518	0.0475817
1530	0.0484423
1542	0.0613521
1554	0.0909215
1566	0.173359
1578	0.30965
1590	0.401493
1602	0.454485
1614	0.581615
1626	0.606144
1638	0.589299
1650	0.345121
1662	0.150737
1674	0.0780733
1686	0.0435243
1698	0.0272334
1710	0.0175204
1722	0.0140778
1734	0.0143852
1746	0.0119876
1758	0.0104507
1770	0.0100204
1782	0.00854503
1794	0.00848355
1806	0.00719258
1818	0.0051639
1830	0.0051639
1842	0.00387293
1854	0.00350408
1866	0.00288933
1878	0.00276638
1890	0.0031967
1902	0.0031967
1914	0.00307375
1926	0.0034426
1938	0.0041803
1950	0.00436472
1962	0.0036885
1974	0.00362703
1986	0.00307375
1998	0.00276638
2010	0.00252048
2022	0.00190573
2034	0.00178278
2046	0.00227458
2058	0.0029508
2070	0.00307375
2082	0.0029508
2094	0.00288933
2106	0.00264343
2118	0.00331965
2130	0.00227458
2142	0.00215163
2154	0.00202868
2166	0.00252048
2178	0.00141393
2190	0.00135245
2202	0.0012295
2214	0.00116803
2226	0.0009836
2238	0.0012295
2250	0.00165983
2262	0.00178278
2274	0.0017213
2286	0.00233605
2298	0.00387293
2310	0.00547128
2322	0.00799175
2334	0.007377
2346	0.00608603
2358	0.0086065
2370	0.0078688
2382	0.00522537
2394	0.0041803
2406	0.00430325
2418	0.00479505
2430	0.004918
2442	0.00436472
2454	0.00485653
2466	0.004918
2478	0.00534833
2490	0.00553275
2502	0.0056557
2514	0.00553275
2526	0.0051639
2538	0.0056557
2550	0.00602455
2562	0.00676225
2574	0.00829913
2586	0.0088524
2598	0.00965158
2610	0.0103278
2622	0.0109426
2634	0.0109426
2646	0.0105122
2658	0.0112499
2670	0.0124794
2682	0.013586
2694	0.0130327
2706	0.0134015
2718	0.0135245
2730	0.0152458
2742	0.0163524
2754	0.017213
2766	0.0181351
2778	0.0194261
2790	0.0207785
2802	0.0220695
2814	0.024713
2826	0.0292006
2838	0.0382989
2850	0.0584627
2862	0.0613521
2874	0.041926
2886	0.0374998
2898	0.0415571
2910	0.0474587
2922	0.0564955
2934	0.0617824
2946	0.0984215
2958	0.104753
2970	0.0896306
2982	0.0598152
2994	0.0500407
3006	0.0800404
3018	0.0797946
3030	0.0330736
3042	0.0243441
3054	0.0213318
3066	0.0202253
3078	0.0197335
3090	0.0188728
3102	0.0194261
3114	0.0180122
3126	0.0167212
3138	0.0163524
3150	0.015922
3162	0.0152458
3174	0.0151843
3186	0.0143237
3198	0.0140163
3210	0.0138934
3222	0.0134015
3234	0.0130327
3246	0.0130327
3258	0.0121721
3270	0.0111885
3282	0.0102663
3294	0.0088524
3306	0.00829913
3318	0.007377
3330	0.0059016
3342	0.00596307
3354	0.00547128
3366	0.00497948
3378	0.0046721
3390	0.00331965
3402	0.00338113
3414	0.00350408
3426	0.00282785
3438	0.00233605
3450	0.00264343
3462	0.00215163
3474	0.0019672
3486	0.0009836
3498	0.00104508
3510	0.00104508
3522	0.00110655
3534	0.00061475
3546	0.000799175
3558	0.000307375
3570	0.00061475
3582	0.00086065
3594	0.00086065
3606	0.00153688
3618	0.0014754
3630	0.0027049
3642	0.00104508
3654	0.00215163
3666	0.000799175
3678	0.0027049
3690	0.00276638
3702	0.0017213
3714	0.0027049
3726	0.00301228
3738	0.00313523
3750	0.00381145
3762	0.002459
3774	0.00184425
3786	0.00209015
3798	0.00301228
3810	0.00264343
3822	0.00307375
3834	0.00301228
3846	0.00325818
3858	0.0036885
3870	0.00387293
3882	0.00276638
3894	0.00282785
3906	0.0029508
3918	0.0019672
3930	0.00258195
3942	0.0031967
3954	0
3966	0.0002459
