Infrared Spectrum: Benzeneacetamide, .alpha.-ethyl-
Formula: C 10 H 13 N O
CAS: 90-26-6
Origin: Sadtler Research Labs Under US-EPA Contract
1/CM	ABSORBANCE
450	0.0111039
462	0.00837666
474	0.00409093
486	0.00487015
498	0.00272728
510	0.00808445
522	0.0296105
534	0.0645782
546	0.0429547
558	0.0240585
570	0.031169
582	0.0402274
594	0.0515262
606	0.0385716
618	0.0235715
630	0.024643
642	0.0307793
654	0.0323378
666	0.0304871
678	0.0323378
690	0.118442
702	0.227923
714	0.104611
726	0.063312
738	0.106851
750	0.128962
762	0.0982796
774	0.0750977
786	0.0487015
798	0.0390586
810	0.0365261
822	0.0355521
834	0.0317534
846	0.0295131
858	0.0260066
870	0.0234741
882	0.0237663
894	0.0233767
906	0.0236689
918	0.0168507
930	0.0169481
942	0.0148053
954	0.00896108
966	0.00672081
978	0.00555197
990	0.0064286
1002	0.00866887
1014	0.0150001
1026	0.0344807
1038	0.0280521
1050	0.0139286
1062	0.0260066
1074	0.0298053
1086	0.02513
1098	0.0234741
1110	0.0169481
1122	0.0118832
1134	0.00711042
1146	0.00467534
1158	0.006526
1170	0.0100325
1182	0.0175325
1194	0.0235715
1206	0.0299027
1218	0.053182
1230	0.0845458
1242	0.0827926
1254	0.0604873
1266	0.0659418
1278	0.10052
1290	0.118734
1302	0.111526
1314	0.139481
1326	0.170455
1338	0.152825
1350	0.139384
1362	0.132955
1374	0.105974
1386	0.0799679
1398	0.0484093
1410	0.0310716
1422	0.0227923
1434	0.0234741
1446	0.052208
1458	0.0906822
1470	0.0601951
1482	0.0464612
1494	0.0891237
1506	0.0475327
1518	0.0220131
1530	0.0254222
1542	0.0304871
1554	0.0427599
1566	0.0896108
1578	0.261137
1590	0.365553
1602	0.195975
1614	0.0760717
1626	0.0394482
1638	0.0296105
1650	0.0345781
1662	0.0417859
1674	0.0681821
1686	0.126039
1698	0.222079
1710	0.385229
1722	0.852763
1734	0.81799
1746	0.317923
1758	0.144351
1770	0.0781172
1782	0.0359417
1794	0.02513
1806	0.0198702
1818	0.0111039
1830	0.00876627
1842	0.00623379
1854	0.00564937
1866	0.00925328
1878	0.00905848
1890	0.00857146
1902	0.00555197
1914	0.00457794
1926	0.00564937
1938	0.0103247
1950	0.0119806
1962	0.00915588
1974	0.00370131
1986	0.00233767
1998	0.00224027
2010	0.00155845
2022	0.00165585
2034	0.00155845
2046	0.00146105
2058	0.00116884
2070	0.00155845
2082	0.00097403
2094	0.000779224
2106	0.000584418
2118	0.000292209
2130	0.000584418
2142	0.000292209
2154	0.000487015
2166	0.000389612
2178	0.000681821
2190	0.000584418
2202	0.000584418
2214	0.000681821
2226	0.000779224
2238	0.000681821
2250	0.000584418
2262	0.000681821
2274	0.000487015
2286	0.000681821
2298	0.000194806
2310	9.7403e-05
2322	0.000487015
2334	0
2346	0.00175325
2358	0
2370	0.000194806
2382	0.00126624
2394	0.00146105
2406	0.00155845
2418	0.00165585
2430	0.00126624
2442	0.00107143
2454	0.00116884
2466	0.00097403
2478	0.000876627
2490	0.000389612
2502	0.000194806
2514	0.000389612
2526	0.000194806
2538	0.000681821
2550	0.000779224
2562	0.000779224
2574	0.00116884
2586	0.00126624
2598	0.00136364
2610	0.00116884
2622	0.00116884
2634	0.00175325
2646	0.00185066
2658	0.00185066
2670	0.00185066
2682	0.00185066
2694	0.00185066
2706	0.00175325
2718	0.00165585
2730	0.00243508
2742	0.00409093
2754	0.00506496
2766	0.00487015
2778	0.00584418
2790	0.00788964
2802	0.00857146
2814	0.00896108
2826	0.00993511
2838	0.0122728
2850	0.0161689
2862	0.0277599
2874	0.0614613
2886	0.124676
2898	0.112598
2910	0.0786042
2922	0.0786042
2934	0.123897
2946	0.145617
2958	0.136851
2970	0.231137
2982	0.202403
2994	0.0661366
3006	0.0367209
3018	0.0506496
3030	0.106169
3042	0.0940913
3054	0.0570782
3066	0.108117
3078	0.127208
3090	0.0758769
3102	0.0435391
3114	0.0242533
3126	0.0134416
3138	0.0102273
3150	0.0096429
3162	0.00896108
3174	0.00701302
3186	0.00467534
3198	0.00438313
3210	0.00399352
3222	0.0034091
3234	0.00350651
3246	0.00292209
3258	0.00292209
3270	0.00292209
3282	0.00292209
3294	0.00399352
3306	0.00457794
3318	0.00496755
3330	0.00418833
3342	0.00438313
3354	0.00418833
3366	0.00516236
3378	0.00759743
3390	0.0132468
3402	0.024643
3414	0.045682
3426	0.0779224
3438	0.0716886
3450	0.0271754
3462	0.0132468
3474	0.0106169
3486	0.0119806
3498	0.018117
3510	0.0286365
3522	0.0505522
3534	0.0705198
3546	0.111234
3558	0.0832796
3570	0.018604
3582	0.00701302
3594	0.00301949
3606	0.00107143
3618	0.000194806
3630	0.00165585
3642	0.000779224
3654	0.00126624
3666	9.7403e-05
3678	0.000681821
3690	0.00107143
3702	0.00175325
3714	0.00175325
3726	0.00136364
3738	0.00175325
3750	0.000487015
3762	0
3774	0.000584418
3786	0.000389612
3798	0
3810	0
3822	0
3834	0.000292209
3846	0
3858	0
3870	0
3882	0.000389612
3894	0
3906	0.000876627
3918	0.000194806
3930	0.000487015
3942	0.000292209
3954	0.000876627
3966	0.00214287
