Infrared Spectrum: [1,1'-Biphenyl]-2-amine
Formula: C 12 H 11 N
CAS: 90-41-5
Origin: Sadtler Research Labs Under US-EPA Contract
1/CM	ABSORBANCE
450	0.108064
462	0.131623
474	0.155986
486	0.125914
498	0.0883651
510	0.0919029
522	0.107341
534	0.11321
546	0.119562
558	0.157915
570	0.131703
582	0.0891691
594	0.0836212
606	0.0923853
618	0.175846
630	0.131301
642	0.117874
654	0.12905
666	0.138297
678	0.150036
690	0.269759
702	0.528824
714	0.339631
726	0.300313
738	0.656266
750	0.698398
762	0.384899
774	0.21645
786	0.108064
798	0.0819327
810	0.0738118
822	0.0726057
834	0.0618314
846	0.0518612
858	0.0430167
870	0.0300715
882	0.0250864
894	0.0209857
906	0.025408
918	0.0352174
930	0.0389964
942	0.0281418
954	0.0202621
966	0.0193776
978	0.0213877
990	0.0402025
1002	0.0975313
1014	0.15478
1026	0.0366647
1038	0.0352174
1050	0.05162
1062	0.0661733
1074	0.0638416
1086	0.0188148
1098	0.00554795
1110	0.00611078
1122	0.00997022
1134	0.0363431
1146	0.073249
1158	0.0884455
1170	0.0291066
1182	0.0109351
1194	0.00410065
1206	0.00337701
1218	0.00916617
1230	0.0266945
1242	0.0721233
1254	0.0919029
1266	0.099461
1278	0.227707
1290	0.344375
1302	0.204872
1314	0.110637
1326	0.0446248
1338	0.00683442
1350	0.00410065
1362	0
1374	0.00209053
1386	0.0079601
1398	0.0151965
1410	0.0312775
1422	0.0530673
1434	0.127522
1446	0.208973
1458	0.189434
1470	0.181313
1482	0.517969
1494	0.40106
1506	0.191686
1518	0.0699523
1530	0.0368255
1542	0.032966
1554	0.0485646
1566	0.0816915
1578	0.142397
1590	0.185173
1602	0.30763
1614	0.630777
1626	0.747606
1638	0.222802
1650	0.0588565
1662	0.0429363
1674	0.0373079
1686	0.0216289
1698	0.0147141
1710	0.016081
1722	0.0106939
1734	0.00418106
1746	0.00916617
1758	0.0153574
1770	0.0208249
1782	0.0202621
1794	0.0167242
1806	0.0360214
1818	0.0216289
1830	0.00868374
1842	0.00715604
1854	0.0136688
1866	0.0189756
1878	0.0344937
1890	0.0528261
1902	0.0293478
1914	0.0226742
1926	0.0273377
1938	0.022835
1950	0.0288654
1962	0.0223526
1974	0.00787969
1986	0.00594997
1998	0.00546754
2010	0.00530673
2022	0.00442227
2034	0.00466349
2046	0.0049047
2058	0.00522633
2070	0.00514592
2082	0.00554795
2094	0.00570876
2106	0.006352
2118	0.00707564
2130	0.00675402
2142	0.00667361
2154	0.00619119
2166	0.00562835
2178	0.00594997
2190	0.006352
2202	0.00683442
2214	0.00723645
2226	0.0064324
2238	0.00603038
2250	0.00619119
2262	0.00514592
2274	0.00603038
2286	0.00755807
2298	0.0080405
2310	0.0118195
2322	0.0123824
2334	0.00860334
2346	0.00820131
2358	0.00586957
2370	0.00377904
2382	0.00538714
2394	0.00619119
2406	0.00707564
2418	0.00715604
2430	0.00747766
2442	0.00852293
2454	0.00828172
2466	0.00755807
2478	0.00627159
2490	0.00594997
2502	0.00675402
2514	0.00779929
2526	0.00884455
2538	0.00948779
2550	0.00884455
2562	0.00836212
2574	0.00900536
2586	0.0106939
2598	0.0132668
2610	0.0136688
2622	0.0113371
2634	0.00940739
2646	0.0080405
2658	0.00747766
2670	0.00619119
2682	0.00546754
2694	0.00594997
2706	0.00562835
2718	0.00603038
2730	0.00691483
2742	0.00820131
2754	0.00836212
2766	0.00828172
2778	0.00747766
2790	0.00675402
2802	0.0065128
2814	0.00659321
2826	0.00763847
2838	0.00956819
2850	0.0111763
2862	0.0143121
2874	0.0166438
2886	0.0185736
2898	0.0175283
2910	0.015679
2922	0.0137493
2934	0.0153574
2946	0.0147141
2958	0.0128648
2970	0.0159202
2982	0.0203425
2994	0.0263728
3006	0.0574896
3018	0.174398
3030	0.365521
3042	0.315188
3054	0.267829
3066	0.528824
3078	0.449625
3090	0.264532
3102	0.12109
3114	0.0656909
3126	0.0314384
3138	0.0223526
3150	0.0223526
3162	0.0179303
3174	0.0138297
3186	0.0133472
3198	0.0137493
3210	0.0117391
3222	0.00940739
3234	0.00844252
3246	0.00627159
3258	0.00530673
3270	0.00675402
3282	0.00603038
3294	0.00594997
3306	0.00659321
3318	0.00675402
3330	0.00739726
3342	0.00763847
3354	0.00747766
3366	0.010131
3378	0.0178499
3390	0.0425342
3402	0.112085
3414	0.102597
3426	0.0367451
3438	0.0206641
3450	0.019056
3462	0.0275789
3474	0.0535497
3486	0.120608
3498	0.171343
3510	0.0878827
3522	0.0338505
3534	0.0189756
3546	0.0135884
3558	0.0102114
3570	0.00828172
3582	0.00779929
3594	0.00667361
3606	0.00860334
3618	0.00619119
3630	0.00570876
3642	0.0104527
3654	0.0115783
3666	0.0108547
3678	0.00924657
3690	0.0114175
3702	0.00884455
3714	0.0081209
3726	0.0080405
3738	0.00876414
3750	0.00594997
3762	0.00779929
3774	0.00876414
3786	0.0112567
3798	0.012302
3810	0.00980941
3822	0.0080405
3834	0.0113371
3846	0.00956819
3858	0.00988981
3870	0.00916617
3882	0.0106939
3894	0.0129452
3906	0.0122216
3918	0.0130256
3930	0.0124628
3942	0.00900536
3954	0.0114979
3966	0.0119803
