Infrared Spectrum: [1,1'-Bicyclohexyl]-2-one
Formula: C 12 H 20 O
CAS: 90-42-6
Origin: Sadtler Research Labs Under US-EPA Contract
1/CM	ABSORBANCE
450	0.00549792
462	0.00879667
474	0.0100337
486	0.00700985
498	0.000274896
510	0.0151193
522	0.0153942
534	0.0228164
546	0.0324377
558	0.017181
570	0.0101712
582	0.00742219
594	0.0101712
606	0.010446
618	0.00481068
630	0.000274896
642	0.00591026
654	0.00948391
666	0.00797198
678	0.00824688
690	0.00673495
702	0.00563537
714	0.00673495
726	0.00219917
738	0.00934646
750	0.00975881
762	0.0071473
774	0.00962136
786	0.0126452
798	0.00577282
810	0.00893412
822	0.0155316
834	0.0292764
846	0.0178682
858	0.0149818
870	0.0200674
882	0.0301011
894	0.030376
906	0.0189678
918	0.0177308
930	0.0152567
942	0.0112707
954	0.0116831
966	0.00893412
978	0.013195
990	0.0228164
1002	0.0191053
1014	0.030376
1026	0.0329875
1038	0.0273522
1050	0.030376
1062	0.0404097
1074	0.0295513
1086	0.0237785
1098	0.0283143
1110	0.0520928
1122	0.104323
1134	0.0821939
1146	0.0338122
1158	0.0208921
1170	0.0166312
1182	0.0207546
1194	0.0237785
1206	0.0335373
1218	0.0432961
1230	0.0453578
1242	0.0332624
1254	0.0324377
1266	0.0349118
1278	0.0382105
1290	0.0430212
1302	0.0382105
1314	0.0472821
1326	0.0306509
1338	0.0454953
1350	0.0430212
1362	0.0307884
1374	0.0222666
1386	0.0180057
1398	0.0129201
1410	0.0137448
1422	0.0255653
1434	0.0504434
1446	0.105972
1458	0.150093
1470	0.0573158
1482	0.0163563
1494	0.00975881
1506	0.00948391
1518	0.00742219
1530	0.00618516
1542	0.0065975
1554	0.00577282
1566	0.00536047
1578	0.00481068
1590	0.00508558
1602	0.00618516
1614	0.00577282
1626	0.00742219
1638	0.00783454
1650	0.010446
1662	0.0129201
1674	0.0202049
1686	0.0329875
1698	0.0566286
1710	0.192427
1722	0.536185
1734	0.336748
1746	0.0896161
1758	0.0391727
1770	0.0244657
1782	0.0170436
1794	0.0125078
1806	0.00838433
1818	0.0071473
1830	0.00604771
1842	0.00549792
1854	0.00453578
1866	0.00467323
1878	0.00439834
1890	0.00453578
1902	0.00412344
1914	0.0034362
1926	0.0034362
1938	0.00329875
1950	0.0034362
1962	0.00288641
1974	0.00302386
1986	0.0031613
1998	0.00206172
2010	0.00219917
2022	0.00302386
2034	0.00219917
2046	0.00219917
2058	0.00247406
2070	0.00151193
2082	0.0034362
2094	0.00384854
2106	0.0034362
2118	0.0031613
2130	0.00384854
2142	0.00357365
2154	0.00357365
2166	0.00357365
2178	0.0037111
2190	0.00398599
2202	0.00384854
2214	0.0034362
2226	0.00357365
2238	0.0037111
2250	0.0031613
2262	0.0034362
2274	0.00302386
2286	0.00357365
2298	0.0034362
2310	0.00467323
2322	0.00398599
2334	0.00453578
2346	0.00247406
2358	0.00755964
2370	0.00123703
2382	0.00164938
2394	0.00329875
2406	0.0034362
2418	0.00274896
2430	0.00219917
2442	0.00192427
2454	0.00192427
2466	0.00233662
2478	0.00247406
2490	0.00288641
2502	0.00302386
2514	0.00233662
2526	0.0031613
2538	0.00274896
2550	0.00123703
2562	0.000137448
2574	0.00206172
2586	0.00481068
2598	0.00604771
2610	0.00494813
2622	0.00481068
2634	0.00604771
2646	0.00769709
2658	0.015944
2670	0.0232287
2682	0.015944
2694	0.0107209
2706	0.00948391
2718	0.00783454
2730	0.00700985
2742	0.00604771
2754	0.00700985
2766	0.00742219
2778	0.0109958
2790	0.0174559
2802	0.0236411
2814	0.0258402
2826	0.0329875
2838	0.0725725
2850	0.206309
2862	0.483542
2874	0.386229
2886	0.174009
2898	0.177308
2910	0.310495
2922	0.600785
2934	1.27469
2946	1.11374
2958	0.406571
2970	0.1982
2982	0.0768334
2994	0.0280394
3006	0.0192427
3018	0.0151193
3030	0.0120954
3042	0.00824688
3054	0.00673495
3066	0.00494813
3078	0.00536047
3090	0.00398599
3102	0.00302386
3114	0.00261151
3126	0.00178682
3138	0.00192427
3150	0.00494813
3162	0.00783454
3174	0.00591026
3186	0.00274896
3198	0.00274896
3210	0.00206172
3222	0.00467323
3234	0.00673495
3246	0.00838433
3258	0.00508558
3270	0.0037111
3282	0.00219917
3294	0.0031613
3306	0.00261151
3318	0.00151193
3330	0.00357365
3342	0.00398599
3354	0.0037111
3366	0.00123703
3378	0.00219917
3390	0.00274896
3402	0.00467323
3414	0.00755964
3426	0.00975881
3438	0.00783454
3450	0.00481068
3462	0.0031613
3474	0.0034362
3486	0.00233662
3498	0.00178682
3510	0.00274896
3522	0.00261151
3534	0.00357365
3546	0.00192427
3558	0.00302386
3570	0.00384854
3582	0.00357365
3594	0.00192427
3606	0.00302386
3618	0.0037111
3630	0.00412344
3642	0.00384854
3654	0.00329875
3666	0.00329875
3678	0.00439834
3690	0.00467323
3702	0.0034362
3714	0.0037111
3726	0.00453578
3738	0.00494813
3750	0.00398599
3762	0.00426089
3774	0.00549792
3786	0.00357365
3798	0.0037111
3810	0.00384854
3822	0.00384854
3834	0.00261151
3846	0.00591026
3858	0.00206172
3870	0.00219917
3882	0.00618516
3894	0.00494813
3906	0.00563537
3918	0.00769709
3930	0.00646006
3942	0.00563537
3954	0.00522302
3966	0.00824688
