Infrared Spectrum: o-Hydroxybiphenyl
Formula: C 12 H 10 O
CAS: 90-43-7
Origin: Sadtler Research Labs Under US-EPA Contract
1/CM	ABSORBANCE
450	0.01675
462	0.0185
474	0.035
486	0.02625
498	0.01295
510	0.0138
522	0.02085
534	0.0117
546	0.01815
558	0.04225
570	0.0233
582	0.0114
594	0.0064
606	0.0221
618	0.04365
630	0.01035
642	0.01335
654	0.01675
666	0.0291
678	0.03795
690	0.1048
702	0.20745
714	0.12715
726	0.1134
738	0.21225
750	0.4349
762	0.21815
774	0.07385
786	0.0235
798	0.01275
810	0.0157
822	0.05215
834	0.066
846	0.03065
858	0.01745
870	0.0087
882	0.0028
894	0.0101
906	0.0092
918	0.01385
930	0.01305
942	0.0118
954	0.00505
966	0.00855
978	0.0093
990	0.0153
1002	0.04155
1014	0.07205
1026	0.02535
1038	0.03625
1050	0.0268
1062	0.0225
1074	0.02985
1086	0.024
1098	0.041
1110	0.04055
1122	0.02435
1134	0.03105
1146	0.0751
1158	0.08905
1170	0.13585
1182	0.3015
1194	0.2309
1206	0.11595
1218	0.12225
1230	0.16725
1242	0.157
1254	0.09665
1266	0.13315
1278	0.1694
1290	0.0951
1302	0.03875
1314	0.0423
1326	0.0881
1338	0.1047
1350	0.0366
1362	0.01005
1374	0.0067
1386	0.0079
1398	0.01305
1410	0.02585
1422	0.03335
1434	0.06515
1446	0.08325
1458	0.08415
1470	0.1792
1482	0.34395
1494	0.1535
1506	0.07775
1518	0.03025
1530	0.0179
1542	0.01785
1554	0.02595
1566	0.0436
1578	0.0906
1590	0.1113
1602	0.0784
1614	0.07275
1626	0.04675
1638	0.0116
1650	0.00515
1662	0.0065
1674	0.0118
1686	0.0155
1698	0.00925
1710	0.01075
1722	0.0088
1734	0.00865
1746	0.00865
1758	0.00965
1770	0.0094
1782	0.01365
1794	0.01435
1806	0.01375
1818	0.01335
1830	0.0079
1842	0.00405
1854	0.0041
1866	0.0083
1878	0.01215
1890	0.01825
1902	0.0201
1914	0.0082
1926	0.0115
1938	0.01605
1950	0.01365
1962	0.0112
1974	0.00555
1986	0.0027
1998	0.00315
2010	0.00395
2022	0.0026
2034	0.003
2046	0.0033
2058	0.00305
2070	0.0037
2082	0.0026
2094	0.0027
2106	0.00225
2118	0.00215
2130	0.00145
2142	0.0014
2154	0.00125
2166	0.00185
2178	0.002
2190	0.00205
2202	0.0018
2214	0.0023
2226	0.00205
2238	0.00205
2250	0.0031
2262	0.00375
2274	0.0038
2286	0.005
2298	0.0076
2310	0.0101
2322	0.0111
2334	0.00975
2346	0.0112
2358	0.0128
2370	0.00985
2382	0.007
2394	0.004
2406	0.00505
2418	0.005
2430	0.00585
2442	0.0054
2454	0.0055
2466	0.0054
2478	0.0047
2490	0.0054
2502	0.00605
2514	0.00545
2526	0.0032
2538	0.00245
2550	0.0028
2562	0.0024
2574	0.0024
2586	0.00265
2598	0.0029
2610	0.00345
2622	0.00395
2634	0.0028
2646	0.0027
2658	0.00265
2670	0.00395
2682	0.00235
2694	0.00125
2706	0.0032
2718	0.003
2730	0.00235
2742	0.00285
2754	0.00355
2766	0.0029
2778	0.00195
2790	0.00195
2802	0.0017
2814	0.0022
2826	0.00195
2838	0.0029
2850	0.00245
2862	0.0035
2874	0.0044
2886	0.00585
2898	0.00585
2910	0.0047
2922	0.0047
2934	0.00635
2946	0.00645
2958	0.00525
2970	0.0051
2982	0.00565
2994	0.00725
3006	0.0142
3018	0.03635
3030	0.0933
3042	0.12875
3054	0.10955
3066	0.19295
3078	0.2052
3090	0.1108
3102	0.05845
3114	0.0305
3126	0.01425
3138	0.00825
3150	0.00805
3162	0.0074
3174	0.00335
3186	0.00405
3198	0.00175
3210	0.0031
3222	0.0019
3234	0.00245
3246	0.0023
3258	0.0026
3270	0.00235
3282	0.00105
3294	0.0024
3306	0.003
3318	0.00295
3330	0.00435
3342	0.0031
3354	0.00255
3366	0.0042
3378	0.0024
3390	0.003
3402	0.00195
3414	0.00155
3426	0.002
3438	0.00135
3450	0.0022
3462	0.0028
3474	0.0016
3486	0.0034
3498	0.00695
3510	0.007
3522	0.00535
3534	0.00495
3546	0.006
3558	0.0058
3570	0.01355
3582	0.0639
3594	0.49405
3606	0.1808
3618	0.0225
3630	0.0144
3642	0.03585
3654	0.0382
3666	0.0119
3678	0.00495
3690	0.00475
3702	0.00335
3714	0.00275
3726	0.00195
3738	0.0014
3750	0.0019
3762	0.00195
3774	0.00075
3786	0.0025
3798	0.0011
3810	0.00055
3822	0.0013
3834	0.00255
3846	0.00185
3858	0.00505
3870	0.0024
3882	0.00285
3894	0.00425
3906	0.0052
3918	0.0039
3930	0.00435
3942	0.006
3954	0
3966	0.00055
