Infrared Spectrum: 1,1-Dimethoxy-2-phenylpropane
Formula: C 11 H 16 O 2
CAS: 90-87-9
Origin: Sadtler Research Labs Under US-EPA Contract
1/CM	ABSORBANCE
450	0.0570627
462	0.0119313
474	0.0143954
486	0.0156922
498	0.0158219
510	0.0745706
522	0.0360533
534	0.0412408
546	0.0954504
558	0.105177
570	0.102194
582	0.0601752
594	0.0457799
606	0.0435752
618	0.0229548
630	0.020361
642	0.0249001
654	0.0389064
666	0.0478549
678	0.0728847
690	0.292187
702	0.458447
714	0.123722
726	0.0517455
738	0.0579705
750	0.124241
762	0.20763
774	0.0661409
786	0.0330704
798	0.0208798
810	0.0151735
822	0.0140063
834	0.0142657
846	0.0249001
858	0.0278829
870	0.0294392
882	0.0529127
894	0.0758675
906	0.0988223
918	0.0940238
930	0.143305
942	0.237718
954	0.271048
966	0.339393
978	0.316179
990	0.168076
1002	0.117238
1014	0.175598
1026	0.225138
1038	0.238885
1050	0.414872
1062	0.720287
1074	1.11117
1086	1.2524
1098	1.16564
1110	0.975513
1122	0.742593
1134	0.759842
1146	0.691107
1158	0.430305
1170	0.27416
1182	0.312289
1194	0.402422
1206	0.351584
1218	0.24952
1230	0.154199
1242	0.105566
1254	0.0955801
1266	0.0877988
1278	0.0693831
1290	0.0736628
1302	0.0754784
1314	0.0766456
1326	0.0744409
1338	0.109975
1350	0.133968
1362	0.207371
1374	0.210095
1386	0.235902
1398	0.0984332
1410	0.0510971
1422	0.0481142
1434	0.0661409
1446	0.175079
1458	0.247834
1470	0.181434
1482	0.12489
1494	0.185713
1506	0.11205
1518	0.0377392
1530	0.0332001
1542	0.0293095
1554	0.0258079
1566	0.0228251
1578	0.0322923
1590	0.0566737
1602	0.0887066
1614	0.0573221
1626	0.0221766
1638	0.0171188
1650	0.0163407
1662	0.0208798
1674	0.0194532
1686	0.0177673
1698	0.0319032
1710	0.0333298
1722	0.026197
1734	0.0330704
1746	0.0354048
1758	0.0293095
1770	0.022436
1782	0.020361
1794	0.0277532
1806	0.0186751
1818	0.0097266
1830	0.00453908
1842	0.00765159
1854	0.0110235
1866	0.018286
1878	0.0184157
1890	0.0107641
1902	0.0054469
1914	0.00609534
1926	0.0129688
1938	0.024122
1950	0.0226954
1962	0.0142657
1974	0.00713284
1986	0.00881878
1998	0.00985629
2010	0.0105047
2022	0.0127094
2034	0.0136172
2046	0.0159516
2058	0.0166001
2070	0.0151735
2082	0.0132282
2094	0.0110235
2106	0.00933754
2118	0.00830003
2130	0.00894847
2142	0.00791097
2154	0.00881878
2166	0.00804066
2178	0.00609534
2190	0.00453908
2202	0.0022047
2214	0.00155626
2226	0.000778128
2238	0.000259376
2250	0.00064844
2262	0.000518752
2274	0.00116719
2286	0.00233438
2298	0.00337189
2310	0.00596565
2322	0.0042797
2334	0.00233438
2346	0.00233438
2358	0.00272345
2370	0.00194532
2382	0.00350158
2394	0.00155626
2406	0.00194532
2418	0.00168594
2430	0.00142657
2442	0.000778128
2454	0.000518752
2466	0.00116719
2478	0.00116719
2490	0.000907816
2502	0.00129688
2514	0.00155626
2526	0.0022047
2538	0.00350158
2550	0.00492814
2562	0.00596565
2574	0.00739222
2586	0.00946722
2598	0.012061
2610	0.0137469
2622	0.0147844
2634	0.0172485
2646	0.0193235
2658	0.0225657
2670	0.0232142
2682	0.0229548
2694	0.0215282
2706	0.0190641
2718	0.0189344
2730	0.0201016
2742	0.0217876
2754	0.0238626
2766	0.0276235
2778	0.036183
2790	0.0534315
2802	0.0818331
2814	0.127224
2826	0.292836
2838	0.524588
2850	0.327333
2862	0.19103
2874	0.19959
2886	0.320718
2898	0.400606
2910	0.445738
2922	0.55714
2934	0.653368
2946	0.650774
2958	0.529516
2970	0.508377
2982	0.501374
2994	0.601104
3006	0.344451
3018	0.203999
3030	0.306712
3042	0.311122
3054	0.194921
3066	0.281034
3078	0.284665
3090	0.181952
3102	0.111921
3114	0.0660112
3126	0.0341079
3138	0.0191938
3150	0.0151735
3162	0.0138766
3174	0.0115422
3186	0.00830003
3198	0.0075219
3210	0.00635471
3222	0.00389064
3234	0.0032422
3246	0.00311251
3258	0.0022047
3270	0.00285314
3282	0.0022047
3294	0.00142657
3306	0.000907816
3318	0.00064844
3330	0.000259376
3342	0.000778128
3354	0.00064844
3366	0.00168594
3378	0.00116719
3390	0.00142657
3402	0.00233438
3414	0.0010375
3426	0.00129688
3438	0.00181563
3450	0.00233438
3462	0.00194532
3474	0.00142657
3486	0.00272345
3498	0.00168594
3510	0.00168594
3522	0.00233438
3534	0.00194532
3546	0.00168594
3558	0.00194532
3570	0.0022047
3582	0.00233438
3594	0.00272345
3606	0.00311251
3618	0.00129688
3630	0.00363126
3642	0.00389064
3654	0.00479846
3666	0.0042797
3678	0.00298282
3690	0.00363126
3702	0.00285314
3714	0.00453908
3726	0.00518752
3738	0.0022047
3750	0.00466877
3762	0.000778128
3774	0.00181563
3786	0.00402033
3798	0.00168594
3810	0.000389064
3822	0.00350158
3834	0.0022047
3846	0.00246407
3858	0.00142657
3870	0.00142657
3882	0.0022047
3894	0.000907816
3906	0.00453908
3918	0.00804066
3930	0.00285314
3942	0.00298282
3954	0.00453908
3966	0.00479846
