Infrared Spectrum: 4,4'-Dichlorobenzophenone
Formula: C 13 H 8 Cl 2 O
CAS: 90-98-2
Origin: Sadtler Research Labs Under US-EPA Contract
1/CM	ABSORBANCE
450	0.0324772
462	0.0191632
474	0.0163222
486	0.0198317
498	0.0493007
510	0.130689
522	0.04334
534	0.0301375
546	0.010083
558	0.00646201
570	0.00211687
582	0.00428944
594	0.00339813
606	0.00384378
618	0.00740903
630	0.0103058
642	0.0071862
654	0.0129797
666	0.0321429
678	0.0265722
690	0.00540358
702	0.00417803
714	0.0114199
726	0.00662913
738	0.00924736
750	0.105008
762	0.177761
774	0.0230627
786	0.0120327
798	0.015598
810	0.0264051
822	0.0575453
834	0.0901896
846	0.144225
858	0.0687424
870	0.012924
882	0.0123112
894	0.013314
906	0.0253467
918	0.173917
930	0.40382
942	0.0732547
954	0.0672383
966	0.0555399
978	0.0108629
990	0.00707479
1002	0.0113085
1014	0.181716
1026	0.0231741
1038	0.00657343
1050	0.00818893
1062	0.0191075
1074	0.0740346
1086	0.351511
1098	0.458357
1110	0.0721406
1122	0.0305274
1134	0.0152637
1146	0.0158208
1158	0.0163779
1170	0.0784355
1182	0.0305274
1194	0.0071862
1206	0.0166564
1218	0.0410561
1230	0.0919165
1242	0.0759286
1254	0.229401
1266	0.369839
1278	0.48816
1290	0.20528
1302	0.189404
1314	0.0838947
1326	0.030416
1338	0.0198874
1350	0.0282992
1362	0.0284663
1374	0.0242883
1386	0.040499
1398	0.132137
1410	0.0379365
1422	0.0203888
1434	0.0150409
1446	0.0157651
1458	0.0264051
1470	0.0429501
1482	0.0933649
1494	0.10874
1506	0.0108072
1518	0.00835605
1530	0.00852317
1542	0.00997155
1554	0.039162
1566	0.0682968
1578	0.144448
1590	0.450113
1602	0.215698
1614	0.0464039
1626	0.0210015
1638	0.0236755
1650	0.0348169
1662	0.0528102
1674	0.224889
1686	0.518019
1698	0.108016
1710	0.0374908
1722	0.0299704
1734	0.0108072
1746	0.00752044
1758	0.00467939
1770	0.0095259
1782	0.0157094
1794	0.0135368
1806	0.00919165
1818	0.00451227
1830	0.000389949
1842	0.00373237
1854	0.0040109
1866	0.00233969
1878	0.00406661
1890	0.00428944
1902	0.00824464
1914	0.0144281
1926	0.0104172
1938	0.00323101
1950	0.00200545
1962	0.000445656
1974	0.00128126
1986	0.00116985
1998	0.000501363
2010	0.00139267
2022	0.00139267
2034	0.00233969
2046	0.0016155
2058	0.00128126
2070	0.00144838
2082	0.00116985
2094	0.000501363
2106	0.000389949
2118	0.000835605
2130	0.000222828
2142	0.00116985
2154	0.00105843
2166	0.000445656
2178	0.000835605
2190	0.000724191
2202	0.000612777
2214	0.00144838
2226	0.000724191
2238	0.00055707
2250	0.000835605
2262	0.00100273
2274	0.00206116
2286	0.00356525
2298	0.00183833
2310	0.000835605
2322	0.00139267
2334	0.000111414
2346	0.00250681
2358	0.00144838
2370	0.0016155
2382	0.00233969
2394	0.00278535
2406	0.00389949
2418	0.00345383
2430	0.00233969
2442	0.00100273
2454	0.00128126
2466	0.00116985
2478	0.00116985
2490	0.00133697
2502	0.00178262
2514	0.00311959
2526	0.00434515
2538	0.00568211
2550	0.00607206
2562	0.00545929
2574	0.0047908
2586	0.00350954
2598	0.0031753
2610	0.00289676
2622	0.00194975
2634	0.00200545
2646	0.00189404
2658	0.00172692
2670	0.0016155
2682	0.00128126
2694	0.00183833
2706	0.00105843
2718	0.00122555
2730	0.00217257
2742	0.00256252
2754	0.00122555
2766	0.0016155
2778	0.000835605
2790	0.000779898
2802	0.000779898
2814	0.000612777
2826	0.0015598
2838	0.00133697
2850	0.00189404
2862	0.00256252
2874	0.00284106
2886	0.00144838
2898	0.0016155
2910	0.00150409
2922	0.0015598
2934	0.00189404
2946	0.00178262
2958	0.00100273
2970	0.00167121
2982	0.00167121
2994	0.0023954
3006	0.00295247
3018	0.00384378
3030	0.00696337
3042	0.0127012
3054	0.0104729
3066	0.0129797
3078	0.0157094
3090	0.0296918
3102	0.019386
3114	0.00506934
3126	0.00373237
3138	0.00362095
3150	0.00217257
3162	0.00128126
3174	0.00128126
3186	0.00116985
3198	0.00172692
3210	0.00178262
3222	0.00189404
3234	0.00189404
3246	0.00217257
3258	0.00206116
3270	0.00278535
3282	0.00311959
3294	0.00306389
3306	0.00356525
3318	0.00367666
3330	0.00417803
3342	0.00813322
3354	0.00768757
3366	0.00456797
3378	0.00417803
3390	0.00467939
3402	0.00345383
3414	0.00323101
3426	0.0023954
3438	0.00256252
3450	0.0040109
3462	0.00328671
3474	0.00289676
3486	0.00328671
3498	0.00256252
3510	0.00233969
3522	0.00178262
3534	0.00206116
3546	0.00194975
3558	0.00272964
3570	0.00211687
3582	0.00289676
3594	0.00144838
3606	0.00206116
3618	0.00144838
3630	0.00228399
3642	0.00451227
3654	0.00545929
3666	0.00200545
3678	0.00473509
3690	0.00623918
3702	0.00467939
3714	0.00668484
3726	0.00473509
3738	0.00473509
3750	0.00289676
3762	0.00261823
3774	0.00406661
3786	0.00590494
3798	0.00462368
3810	0.0031753
3822	0.00534787
3834	0.0040109
3846	0.00545929
3858	0.00518075
3870	0.00495792
3882	0.0031753
3894	0.00846746
3906	0.00350954
3918	0.00434515
3930	0.00551499
3942	0.00250681
3954	0.00746474
3966	0.00378808
