Infrared Spectrum: Benzene, 1,1'-(chloromethylene)bis-
Formula: C 13 H 11 Cl
CAS: 90-99-3
Origin: Sadtler Research Labs Under US-EPA Contract
1/CM	ABSORBANCE
450	0.13127
462	0.0428621
474	0.0041293
486	0.0417059
498	0.0361727
510	0.0362553
522	0.0318782
534	0.00396413
546	0.0267992
558	0.0271708
570	0.046372
582	0.118635
594	0.0483954
606	0.0374115
618	0.0798607
630	0.107651
642	0.0484367
654	0.031713
666	0.059338
678	0.102902
690	0.259816
702	0.401368
714	0.290827
726	0.186108
738	0.185984
750	0.208406
762	0.0990206
774	0.0687116
786	0.0478586
798	0.0268817
810	0.0258081
822	0.0680096
834	0.0737906
846	0.0510794
858	0.0241564
870	0.00933222
882	0.0135028
894	0.00772179
906	0.012264
918	0.0131725
930	0.0127595
942	0.0070611
954	0.00949739
966	0.011562
978	0.00933222
990	0.0124705
1002	0.0201097
1014	0.0151545
1026	0.0438945
1038	0.0446377
1050	0.00974515
1062	0.0142048
1074	0.0309698
1086	0.020151
1098	0.00887799
1110	0.0121401
1122	0.00425318
1134	0.00264275
1146	0.0101168
1158	0.0145764
1170	0.0264688
1182	0.0414995
1194	0.0324976
1206	0.04439
1218	0.0762682
1230	0.0371224
1242	0.0206465
1254	0.0346035
1266	0.0310523
1278	0.022546
1290	0.0195316
1302	0.0195729
1314	0.0232893
1326	0.0223808
1338	0.021844
1350	0.0121814
1362	0.00685464
1374	0.011975
1386	0.00813472
1398	0.00743274
1410	0.0104471
1422	0.013957
1434	0.0291942
1446	0.0718911
1458	0.0752771
1470	0.0296071
1482	0.0400542
1494	0.109674
1506	0.061444
1518	0.012966
1530	0.011273
1542	0.00879541
1554	0.00871282
1566	0.00999291
1578	0.0163933
1590	0.0333647
1602	0.0476108
1614	0.0185819
1626	0.00953868
1638	0.00677205
1650	0.00759791
1662	0.00920834
1674	0.0101994
1686	0.0110665
1698	0.006483
1710	0.00503775
1722	0.00656559
1734	0.010571
1746	0.0132551
1758	0.0118511
1770	0.00896058
1782	0.0110665
1794	0.0228763
1806	0.0173844
1818	0.00813472
1830	0.00582231
1842	0.00445964
1854	0.00602878
1866	0.00891929
1878	0.0137506
1890	0.0165172
1902	0.0100755
1914	0.00540938
1926	0.00801084
1938	0.0161043
1950	0.01916
1962	0.0158978
1974	0.00445964
1986	0.0029318
1998	0.00227111
2010	0.0017756
2022	0.00227111
2034	0.0011975
2046	0.00107362
2058	0.000743274
2070	0.000867153
2082	0.00140396
2094	0.00136267
2106	0.0017756
2118	0.00082586
2130	0.000578102
2142	0.000330344
2154	0.000619395
2166	0.00144525
2178	0.00152784
2190	0.00144525
2202	0.0011975
2214	0.0011975
2226	0.000784567
2238	0.000908446
2250	0.00169301
2262	0.00198206
2274	0.00148655
2286	0.00123879
2298	0.000330344
2310	0.000743274
2322	0.00111491
2334	0.00140396
2346	0.00210594
2358	0.00123879
2370	0.000949739
2382	0.00140396
2394	0.00181689
2406	0.00148655
2418	0.00198206
2430	0.00206465
2442	0.00251887
2454	0.00185819
2466	0.00227111
2478	0.00218853
2490	0.00185819
2502	0.00218853
2514	0.00239499
2526	0.00260146
2538	0.00247758
2550	0.00222982
2562	0.00198206
2574	0.00239499
2586	0.00222982
2598	0.00408801
2610	0.00371637
2622	0.00247758
2634	0.00313827
2646	0.00185819
2658	0.00218853
2670	0.00243629
2682	0.00305568
2694	0.00239499
2706	0.00256017
2718	0.00165172
2730	0.00181689
2742	0.00185819
2754	0.00309698
2766	0.0035512
2778	0.00607007
2790	0.00400542
2802	0.00388154
2814	0.00227111
2826	0.00338603
2838	0.0029318
2850	0.00445964
2862	0.00611136
2874	0.00627654
2886	0.00660688
2898	0.00660688
2910	0.00747403
2922	0.00867153
2934	0.0104058
2946	0.0189122
2958	0.0238261
2970	0.0115207
2982	0.00912575
2994	0.00929093
3006	0.0173431
3018	0.0417059
3030	0.115909
3042	0.141181
3054	0.0967082
3066	0.164718
3078	0.21683
3090	0.105751
3102	0.0740383
3114	0.0413343
3126	0.0151132
3138	0.00631783
3150	0.00536809
3162	0.00540938
3174	0.00557456
3186	0.0029731
3198	0.00322085
3210	0.0029318
3222	0.00239499
3234	0.00284922
3246	0.0023537
3258	0.00165172
3270	0.00206465
3282	0.00359249
3294	0.00227111
3306	0.00243629
3318	0.00239499
3330	0.000908446
3342	0.00222982
3354	0.00198206
3366	0.00251887
3378	0.00313827
3390	0.00218853
3402	0.00111491
3414	0.000578102
3426	0.00173431
3438	0.00210594
3450	0.00247758
3462	0.00342732
3474	0.00194077
3486	0.0023537
3498	0.00140396
3510	0.00140396
3522	0.00313827
3534	0.00359249
3546	0.00371637
3558	0.00284922
3570	0.00313827
3582	0.00181689
3594	0.0017756
3606	0.00359249
3618	0.0023537
3630	0.0041293
3642	0.00487257
3654	0.00701981
3666	0.00305568
3678	0.00503775
3690	0.0053268
3702	0.00536809
3714	0.0035099
3726	0.00499645
3738	0.0035099
3750	0.00478999
3762	0.00272534
3774	0.0017756
3786	0.00218853
3798	0.00487257
3810	0.00322085
3822	0.00441835
3834	0.00284922
3846	0.00371637
3858	0.00284922
3870	0.00458352
3882	0.00433577
3894	0.00474869
3906	0.00788696
3918	0.00437706
3930	0.00107362
3942	0.00222982
3954	0.0035099
3966	0.00483128
