Infrared Spectrum: Naphthalene, decahydro-
Formula: C 10 H 18
CAS: 91-17-8
Origin: Sadtler Research Labs Under US-EPA Contract
1/CM	ABSORBANCE
450	0.027716
462	0.0217234
474	0.0174786
486	0.0217234
498	0.0187271
510	0.0118605
522	0.0161053
534	0.0215985
546	0.0194761
558	0.0188519
570	0.0299633
582	0.0193513
594	0.0219731
606	0.0202252
618	0.0188519
630	0.0189767
642	0.0187271
654	0.0189767
666	0.0183525
678	0.0183525
690	0.0184774
702	0.0159804
714	0.0172289
726	0.0176034
738	0.0174786
750	0.0178531
762	0.0142326
774	0.0207246
786	0.0164798
798	0.0177283
810	0.0147319
822	0.0219731
834	0.0262179
846	0.0263427
858	0.0245949
870	0.0149816
882	0.0161053
894	0.0153562
906	0.0156059
918	0.0183525
930	0.0186022
942	0.0162301
954	0.016355
966	0.0240955
978	0.0259682
990	0.0184774
1002	0.0153562
1014	0.0151065
1026	0.0158556
1038	0.0152313
1050	0.0146071
1062	0.0151065
1074	0.0151065
1086	0.0144823
1098	0.0141077
1110	0.0137332
1122	0.0141077
1134	0.0161053
1146	0.0158556
1158	0.0153562
1170	0.0146071
1182	0.013858
1194	0.0127344
1206	0.0131089
1218	0.0156059
1230	0.0166047
1242	0.0153562
1254	0.0176034
1266	0.017104
1278	0.0137332
1290	0.015481
1302	0.0181028
1314	0.0172289
1326	0.0152313
1338	0.0189767
1350	0.0199755
1362	0.0148568
1374	0.0162301
1386	0.0144823
1398	0.0128592
1410	0.0128592
1422	0.0134835
1434	0.0265924
1446	0.0729106
1458	0.0982546
1470	0.0585532
1482	0.0203501
1494	0.0108617
1506	0.00948837
1518	0.00898898
1530	0.00873929
1542	0.0084896
1554	0.00811506
1566	0.0082399
1578	0.00836475
1590	0.00873929
1602	0.00836475
1614	0.00786536
1626	0.00686659
1638	0.00711628
1650	0.00661689
1662	0.00724113
1674	0.00674174
1686	0.00661689
1698	0.00699143
1710	0.00674174
1722	0.00661689
1734	0.00624235
1746	0.00674174
1758	0.00649204
1770	0.00574296
1782	0.00561811
1794	0.00561811
1806	0.00574296
1818	0.00574296
1830	0.00486903
1842	0.00524357
1854	0.00499388
1866	0.00511873
1878	0.00511873
1890	0.00511873
1902	0.00486903
1914	0.00536842
1926	0.00486903
1938	0.00461934
1950	0.00461934
1962	0.00411995
1974	0.00436965
1986	0.00449449
1998	0.00411995
2010	0.00362056
2022	0.0042448
2034	0.00411995
2046	0.00374541
2058	0.0039951
2070	0.00374541
2082	0.00312118
2094	0.0039951
2106	0.00349572
2118	0.00299633
2130	0.00287148
2142	0.00324602
2154	0.00299633
2166	0.00337087
2178	0.00374541
2190	0.00387026
2202	0.00349572
2214	0.00362056
2226	0.00324602
2238	0.00262179
2250	0.00237209
2262	0.00237209
2274	0.00237209
2286	0.00237209
2298	0.00199755
2310	0.00199755
2322	0.00149816
2334	0.00174786
2346	0.00162301
2358	0.00149816
2370	0.00162301
2382	0.00299633
2394	0.00362056
2406	0.00299633
2418	0.00324602
2430	0.00349572
2442	0.00287148
2454	0.00287148
2466	0.00312118
2478	0.00374541
2490	0.0039951
2502	0.00411995
2514	0.00374541
2526	0.00374541
2538	0.0042448
2550	0.0042448
2562	0.00474419
2574	0.00561811
2586	0.0063672
2598	0.00761567
2610	0.00836475
2622	0.00799021
2634	0.0084896
2646	0.010612
2658	0.0168543
2670	0.0202252
2682	0.0157307
2694	0.0118605
2706	0.00998776
2718	0.00936353
2730	0.00898898
2742	0.00898898
2754	0.0082399
2766	0.0084896
2778	0.0114859
2790	0.0166047
2802	0.017978
2814	0.0189767
2826	0.0222228
2838	0.0539339
2850	0.234338
2862	0.510624
2874	0.37529
2886	0.155684
2898	0.173412
2910	0.404379
2922	0.887412
2934	1.20902
2946	0.663562
2958	0.127344
2970	0.0224725
2982	0.00948837
2994	0.00836475
3006	0.00761567
3018	0.00786536
3030	0.00624235
3042	0.00724113
3054	0.00873929
3066	0.00911383
3078	0.0082399
3090	0.00549327
3102	0.00524357
3114	0.00511873
3126	0.00536842
3138	0.00599266
3150	0.0042448
3162	0.00524357
3174	0.00486903
3186	0.00499388
3198	0.00524357
3210	0.00586781
3222	0.00536842
3234	0.00486903
3246	0.00499388
3258	0.00561811
3270	0.0061175
3282	0.00536842
3294	0.00449449
3306	0.00374541
3318	0.00362056
3330	0.00299633
3342	0.00411995
3354	0.00224725
3366	0.00249694
3378	0.00461934
3390	0.00387026
3402	0.00449449
3414	0.00387026
3426	0.00411995
3438	0.00411995
3450	0.00511873
3462	0.00461934
3474	0.0063672
3486	0.00337087
3498	0.00461934
3510	0.00724113
3522	0.00349572
3534	0.00299633
3546	0.00324602
3558	0.00337087
3570	0.0061175
3582	0.00586781
3594	0.00649204
3606	0.00599266
3618	0.00586781
3630	0.00574296
3642	0.00536842
3654	0.0061175
3666	0.00811506
3678	0.00574296
3690	0.00686659
3702	0.00499388
3714	0.00461934
3726	0.00561811
3738	0.00811506
3750	0.00811506
3762	0.00711628
3774	0.0084896
3786	0.00411995
3798	0.00674174
3810	0.010612
3822	0.00599266
3834	0.00861444
3846	0.0082399
3858	0.00699143
3870	0.00724113
3882	0.0101126
3894	0.00961322
3906	0.0084896
3918	0.0113611
3930	0.00149816
3942	0.00511873
3954	0.00536842
3966	0.00486903
