Infrared Spectrum: Benzene, 1,2-dimethoxy-
Formula: C 8 H 10 O 2
CAS: 91-16-7
Origin: Sadtler Research Labs Under US-EPA Contract
1/CM	ABSORBANCE
450	0.0140683
462	0.0150732
474	0.00602928
486	0.00217724
498	0.0107187
510	0.00653172
522	0.00535936
534	0.008374
546	0.00435448
558	0.0150732
570	0.0259594
582	0.038018
594	0.033831
606	0.0160781
618	0.00452196
630	0.0050244
642	0.0058618
654	0.00519188
666	0.0058618
678	0.00401952
690	0.00803904
702	0.0133984
714	0.033496
726	0.181883
738	0.579481
750	0.69052
762	0.280529
774	0.0634749
786	0.0288066
798	0.0226098
810	0.0492391
822	0.0820652
834	0.0520863
846	0.0226098
858	0.0139008
870	0.0120586
882	0.00971384
894	0.0135659
906	0.0202651
918	0.0281366
930	0.024787
942	0.0172504
954	0.0182553
966	0.0274667
978	0.0425399
990	0.0725188
1002	0.159943
1014	0.364269
1026	0.58886
1038	0.731218
1050	0.545147
1062	0.177696
1074	0.066992
1086	0.0700066
1098	0.146043
1110	0.361924
1122	0.426404
1134	0.193942
1146	0.0817302
1158	0.126447
1170	0.27249
1182	0.333955
1194	0.196789
1206	0.250383
1218	0.520528
1230	0.806081
1242	0.968034
1254	1.45222
1266	1.6341
1278	0.947769
1290	0.527395
1302	0.319887
1314	0.19143
1326	0.136496
1338	0.0907742
1350	0.046392
1362	0.0324911
1374	0.028974
1386	0.0345009
1398	0.0438798
1410	0.0574456
1422	0.0852473
1434	0.203823
1446	0.282874
1458	0.368958
1470	0.457388
1482	0.361924
1494	0.958488
1506	1.59156
1518	0.648148
1530	0.18741
1542	0.0790506
1554	0.0577806
1566	0.0745286
1578	0.156761
1590	0.294095
1602	0.316035
1614	0.143865
1626	0.0445497
1638	0.0288066
1650	0.0222748
1662	0.0172504
1674	0.0155756
1686	0.016413
1698	0.0145708
1710	0.0130634
1722	0.0159106
1734	0.0165805
1746	0.0144033
1758	0.0175854
1770	0.0177529
1782	0.0150732
1794	0.0140683
1806	0.0123935
1818	0.00971384
1830	0.0110537
1842	0.0150732
1854	0.0172504
1866	0.0180878
1878	0.0204326
1890	0.0177529
1902	0.0157431
1914	0.0175854
1926	0.0147382
1938	0.00803904
1950	0.00485692
1962	0.00535936
1974	0.00854148
1986	0.0154082
1998	0.0234472
2010	0.0266293
2022	0.0299789
2034	0.033161
2046	0.0318212
2058	0.0278017
2070	0.0244521
2082	0.0244521
2094	0.0216049
2106	0.0113886
2118	0.00535936
2130	0.0033496
2142	0.00301464
2154	0.0033496
2166	0.00318212
2178	0.00318212
2190	0.00301464
2202	0.00368456
2214	0.00452196
2226	0.00636424
2238	0.00770408
2250	0.00937888
2262	0.00971384
2274	0.00937888
2286	0.00904392
2298	0.00736912
2310	0.00887644
2322	0.0103838
2334	0.0058618
2346	0.00117236
2358	0.00552684
2370	0.00033496
2382	0.00033496
2394	0.00301464
2406	0.00686668
2418	0.00820652
2430	0.00569432
2442	0.00452196
2454	0.00485692
2466	0.00552684
2478	0.00653172
2490	0.00870896
2502	0.00937888
2514	0.0118911
2526	0.0133984
2538	0.0140683
2550	0.0145708
2562	0.0169155
2574	0.016748
2586	0.0144033
2598	0.0108862
2610	0.00803904
2622	0.00736912
2634	0.00653172
2646	0.00351708
2658	0.00284716
2670	0.00200976
2682	0.00133984
2694	0.00100488
2706	0.00066992
2718	0.00184228
2730	0.00468944
2742	0.00619676
2754	0.00803904
2766	0.00937888
2778	0.0100488
2790	0.0147382
2802	0.024787
2814	0.0452196
2826	0.115896
2838	0.337137
2850	0.325246
2862	0.123768
2874	0.102665
2886	0.146043
2898	0.186405
2910	0.248708
2922	0.307493
2934	0.372141
2946	0.512321
2958	0.482342
2970	0.316872
2982	0.22794
2994	0.276844
3006	0.388554
3018	0.246196
3030	0.137166
3042	0.139176
3054	0.157599
3066	0.21136
3078	0.221409
3090	0.143698
3102	0.0641448
3114	0.0445497
3126	0.0301464
3138	0.0175854
3150	0.0123935
3162	0.00937888
3174	0.00787156
3186	0.00803904
3198	0.00770408
3210	0.00619676
3222	0.00602928
3234	0.00485692
3246	0.00569432
3258	0.00401952
3270	0.00284716
3282	0.00133984
3294	0.00385204
3306	0.00468944
3318	0.00267968
3330	0.00200976
3342	0.00184228
3354	0.0025122
3366	0.0033496
3378	0.0033496
3390	0.00301464
3402	0.00100488
3414	0.00217724
3426	0.00234472
3438	0.00200976
3450	0.00301464
3462	0.00435448
3474	0.00368456
3486	0.00351708
3498	0.0033496
3510	0.0033496
3522	0.00602928
3534	0.00452196
3546	0.0050244
3558	0.00552684
3570	0.0066992
3582	0.00770408
3594	0.00770408
3606	0.00887644
3618	0.00636424
3630	0.00870896
3642	0.00770408
3654	0.008374
3666	0.00870896
3678	0.008374
3690	0.0092114
3702	0.00686668
3714	0.00552684
3726	0.0092114
3738	0.00619676
3750	0.0092114
3762	0.00820652
3774	0.00988132
3786	0.00971384
3798	0.00971384
3810	0.00971384
3822	0.00720164
3834	0.0110537
3846	0.00854148
3858	0.00988132
3870	0.0112212
3882	0.0103838
3894	0.012561
3906	0.0112212
3918	0.00954636
3930	0.00887644
3942	0.0115561
3954	0.012561
3966	0.0120586
