Infrared Spectrum: Phenol, 2,6-dimethoxy-
Formula: C 8 H 10 O 3
CAS: 91-10-1
Origin: Sadtler Research Labs Under US-EPA Contract
1/CM	ABSORBANCE
450	0.0827205
462	0.0791077
474	0.0655286
486	0.029899
498	0.00896969
510	0.0128316
522	0.0151986
534	0.0130808
546	0.00573063
558	0.00834679
570	0.0170673
582	0.0328889
594	0.0345084
606	0.0195589
618	0.0259124
630	0.0206801
642	0.0190606
654	0.0158215
666	0.00847137
678	0.0365016
690	0.0815992
702	0.148124
714	0.285909
726	0.207299
738	0.0721312
750	0.0484612
762	0.0820976
774	0.122461
786	0.0939326
798	0.0453468
810	0.0403636
822	0.0680201
834	0.0640336
846	0.0423569
858	0.0361279
870	0.0392424
882	0.0504545
894	0.089946
906	0.126572
918	0.0868316
930	0.042606
942	0.0320168
954	0.0272828
966	0.0276565
978	0.0347575
990	0.0475892
1002	0.0683939
1014	0.0995386
1026	0.133175
1038	0.134296
1050	0.171794
1062	0.310451
1074	0.496696
1086	0.727666
1098	0.970969
1110	0.773511
1122	0.357293
1134	0.128566
1146	0.0950538
1158	0.131929
1170	0.161579
1182	0.179145
1194	0.262862
1206	0.607073
1218	1.20269
1230	0.980935
1242	0.808767
1254	0.582158
1266	0.387192
1278	0.633733
1290	0.771767
1302	0.43067
1314	0.186121
1326	0.130559
1338	0.159959
1350	0.312444
1362	0.34334
1374	0.141023
1386	0.0667743
1398	0.0530707
1410	0.0510774
1422	0.0581784
1434	0.13168
1446	0.267845
1458	0.327892
1470	0.629249
1482	0.869561
1494	0.599972
1506	0.542791
1518	0.250653
1530	0.0834679
1542	0.0585521
1554	0.0707609
1566	0.0879528
1578	0.111747
1590	0.158963
1602	0.274572
1614	0.392299
1626	0.271956
1638	0.102529
1650	0.0392424
1662	0.0272828
1674	0.0186868
1686	0.0122087
1698	0.0129562
1710	0.015697
1722	0.0149495
1734	0.0143266
1746	0.0122087
1758	0.0102155
1770	0.0123333
1782	0.0122087
1794	0.0160707
1806	0.0124579
1818	0.00759932
1830	0.004734
1842	0.00585521
1854	0.00735016
1866	0.0115858
1878	0.0137037
1890	0.009468
1902	0.00971716
1914	0.0132054
1926	0.0164444
1938	0.0151986
1950	0.00971716
1962	0.00672727
1974	0.00622895
1986	0.00585521
1998	0.00460942
2010	0.00373737
2022	0.00436026
2034	0.00647811
2046	0.00847137
2058	0.00822221
2070	0.00722558
2082	0.007101
2094	0.00784848
2106	0.00921885
2118	0.010963
2130	0.0122087
2142	0.0120842
2154	0.0113367
2166	0.0122087
2178	0.0134545
2190	0.0132054
2202	0.00971716
2214	0.00498316
2226	0.00224242
2238	0.00137037
2250	0.000996632
2262	0.000872053
2274	0.00174411
2286	0.000747474
2298	0.000747474
2310	0.00161953
2322	0.00423569
2334	0.00597979
2346	0.00124579
2358	0.00460942
2370	0.000249158
2382	0.000249158
2394	0.00348821
2406	0.00510774
2418	0.00597979
2430	0.00485858
2442	0.00448484
2454	0.00411111
2466	0.00573063
2478	0.00872053
2490	0.0114613
2502	0.0124579
2514	0.0120842
2526	0.0105892
2538	0.00872053
2550	0.00697642
2562	0.00523232
2574	0.00498316
2586	0.00510774
2598	0.00585521
2610	0.00610437
2622	0.00548148
2634	0.00523232
2646	0.00560605
2658	0.004734
2670	0.00361279
2682	0.00498316
2694	0.00660269
2706	0.0077239
2718	0.00809763
2730	0.00735016
2742	0.00685184
2754	0.00735016
2766	0.00784848
2778	0.0103401
2790	0.0143266
2802	0.0219259
2814	0.0350067
2826	0.0563097
2838	0.142768
2850	0.218138
2862	0.113741
2874	0.0676464
2886	0.0712592
2898	0.0972962
2910	0.143017
2922	0.166687
2934	0.194717
2946	0.321663
2958	0.311821
2970	0.210165
2982	0.157592
2994	0.16432
3006	0.231842
3018	0.160582
3030	0.0722558
3042	0.0625387
3054	0.0678956
3066	0.0833434
3078	0.0929359
3090	0.0793568
3102	0.0480875
3114	0.0271582
3126	0.0166936
3138	0.0123333
3150	0.00984174
3162	0.00859595
3174	0.00784848
3186	0.007101
3198	0.00672727
3210	0.00660269
3222	0.00610437
3234	0.00548148
3246	0.00498316
3258	0.0053569
3270	0.00585521
3282	0.00585521
3294	0.00448484
3306	0.00423569
3318	0.00485858
3330	0.00373737
3342	0.00323905
3354	0.00348821
3366	0.00323905
3378	0.00336363
3390	0.00336363
3402	0.002367
3414	0.00261616
3426	0.00274074
3438	0.00311447
3450	0.00361279
3462	0.0029899
3474	0.00448484
3486	0.00411111
3498	0.00436026
3510	0.00585521
3522	0.00784848
3534	0.0113367
3546	0.025165
3558	0.0872053
3570	0.30472
3582	0.457703
3594	0.252522
3606	0.0651548
3618	0.0195589
3630	0.00784848
3642	0.00809763
3654	0.00186868
3666	0.00896969
3678	0.00261616
3690	0.000996632
3702	0.00498316
3714	0.00199326
3726	0.00597979
3738	0.0029899
3750	0.00224242
3762	0.00523232
3774	0.00149495
3786	0.00224242
3798	0.000249158
3810	0.00597979
3822	0
3834	0.000124579
3846	0.004734
3858	0.00573063
3870	0.00286532
3882	0.00436026
3894	0.00323905
3906	0.000996632
3918	0.00124579
3930	0.00112121
3942	0.000249158
3954	0.000249158
3966	0.000249158
