Infrared Spectrum: Naphthalene
Formula: C 10 H 8
CAS: 91-20-3
Origin: Sadtler Research Labs Under US-EPA Contract
1/CM	ABSORBANCE
450	0.023399
462	0.134042
474	0.232614
486	0.108313
498	0.0176816
510	0.00148229
522	0.00974078
534	0.00561153
546	0.00857612
558	0.0096349
570	0.0114348
582	0.012176
594	0.00783497
606	0.0248813
618	0.0351515
630	0.0264695
642	0.0110113
654	0.008682
666	0.00688207
678	0.0109054
690	0.0113289
702	0.0143994
714	0.00698795
726	0.0100584
738	0.0395984
750	0.100266
762	0.260672
774	0.519649
786	0.581694
798	0.277506
810	0.0409748
822	0.0375867
834	0.0248813
846	0.0188463
858	0.0119642
870	0.0174699
882	0.0179993
894	0.0169405
906	0.0133406
918	0.0134465
930	0.0230814
942	0.0357868
954	0.0525155
966	0.0272106
978	0.0146112
990	0.0142935
1002	0.0585505
1014	0.066809
1026	0.0124936
1038	0.0100584
1050	0.0109054
1062	0.0116466
1074	0.0125995
1086	0.013023
1098	0.013023
1110	0.023399
1122	0.0423512
1134	0.0440452
1146	0.0273165
1158	0.0133406
1170	0.0117525
1182	0.0122818
1194	0.0129171
1206	0.0185287
1218	0.0248813
1230	0.0239284
1242	0.0222344
1254	0.0299635
1266	0.0400219
1278	0.0369514
1290	0.0140818
1302	0.0104819
1314	0.00984665
1326	0.0113289
1338	0.01387
1350	0.0163052
1362	0.0150347
1374	0.0229755
1386	0.0374808
1398	0.0318693
1410	0.0120701
1422	0.0115407
1434	0.00931726
1446	0.0062468
1458	0.00667031
1470	0.0106937
1482	0.0164111
1494	0.0403395
1506	0.0724206
1518	0.0639503
1530	0.0346221
1542	0.0256225
1554	0.0177875
1566	0.0107996
1578	0.0140818
1590	0.0244578
1602	0.0280577
1614	0.0153523
1626	0.00910551
1638	0.0143994
1650	0.0250931
1662	0.0257284
1674	0.0231873
1686	0.0111172
1698	0.0168346
1710	0.0304929
1722	0.0350456
1734	0.0185287
1746	0.0146112
1758	0.019058
1770	0.0186345
1782	0.012176
1794	0.0203286
1806	0.0192698
1818	0.0134465
1830	0.0197992
1842	0.0185287
1854	0.00857612
1866	0.00275283
1878	0.00539978
1890	0.0199051
1902	0.0242461
1914	0.0201168
1926	0.0254107
1938	0.0404454
1950	0.0244578
1962	0.00370573
1974	0.00254107
1986	0.00275283
1998	0.00211756
2010	0.000952902
2022	0.00127054
2034	0.00158817
2046	0.00137641
2058	0.000741146
2070	0.000847024
2082	0.000635268
2094	0.000741146
2106	0.00116466
2118	0.00116466
2130	0.00127054
2142	0.000847024
2154	0.00137641
2166	0.00148229
2178	0.00148229
2190	0.000952902
2202	0.00105878
2214	0.00052939
2226	0.000952902
2238	0.00222344
2250	0.00211756
2262	0.00307046
2274	0.00497627
2286	0.00942314
2298	0.0112231
2310	0.0114348
2322	0.00921139
2334	0.00592917
2346	0.0127054
2358	0.00656444
2370	0.00804673
2382	0.00847024
2394	0.00328222
2406	0.00370573
2418	0.00614092
2430	0.00656444
2442	0.00444688
2454	0.00296458
2466	0.00264695
2478	0.00296458
2490	0.00179993
2502	0.00275283
2514	0.00296458
2526	0.00296458
2538	0.00285871
2550	0.00296458
2562	0.00296458
2574	0.00307046
2586	0.00412924
2598	0.00391749
2610	0.00328222
2622	0.00285871
2634	0.00381161
2646	0.0033881
2658	0.00370573
2670	0.00402336
2682	0.00370573
2694	0.00359985
2706	0.00412924
2718	0.00476451
2730	0.00476451
2742	0.00455275
2754	0.00476451
2766	0.00476451
2778	0.00476451
2790	0.00508214
2802	0.00614092
2814	0.00592917
2826	0.00688207
2838	0.00910551
2850	0.0096349
2862	0.00847024
2874	0.00783497
2886	0.00751734
2898	0.00815261
2910	0.00910551
2922	0.0117525
2934	0.0172581
2946	0.0254107
2958	0.0372691
2970	0.0398101
2982	0.0331398
2994	0.0316575
3006	0.0453158
3018	0.0679737
3030	0.100902
3042	0.177663
3054	0.429865
3066	0.532037
3078	0.353421
3090	0.160088
3102	0.100372
3114	0.0341986
3126	0.0119642
3138	0.0112231
3150	0.0110113
3162	0.0116466
3174	0.0120701
3186	0.0112231
3198	0.00942314
3210	0.00910551
3222	0.0106937
3234	0.0107996
3246	0.00889375
3258	0.00741146
3270	0.00751734
3282	0.00709383
3294	0.00804673
3306	0.00762322
3318	0.00772909
3330	0.0071997
3342	0.00762322
3354	0.00751734
3366	0.00730558
3378	0.00762322
3390	0.00677619
3402	0.00751734
3414	0.0071997
3426	0.00698795
3438	0.00582329
3450	0.00539978
3462	0.0052939
3474	0.00635268
3486	0.00582329
3498	0.00571741
3510	0.00487039
3522	0.00582329
3534	0.00698795
3546	0.00497627
3558	0.00487039
3570	0.00899963
3582	0.00539978
3594	0.00709383
3606	0.00592917
3618	0.00603505
3630	0.0115407
3642	0.00751734
3654	0.0106937
3666	0.00709383
3678	0.00105878
3690	0.00762322
3702	0.00614092
3714	0.00762322
3726	0
3738	0.00137641
3750	0.0163052
3762	0.00412924
3774	0.00614092
3786	0.0052939
3798	0.0107996
3810	0.00751734
3822	0.0119642
3834	0.0109054
3846	0.0151406
3858	0.0100584
3870	0.00804673
3882	0.008682
3894	0.00889375
3906	0.00614092
3918	0.0102702
3930	0.00635268
3942	0.00476451
3954	0.00465863
3966	0.0123877
