Infrared Spectrum: Benzene, 1-methoxy-2-nitro-
Formula: C 7 H 7 N O 3
CAS: 91-23-6
Origin: Sadtler Research Labs Under US-EPA Contract
1/CM	ABSORBANCE
450	0
462	0.0217936
474	0.0229611
486	0.0190694
498	0.0342471
510	0.0579866
522	0.0556516
534	0.039501
546	0.039501
558	0.0472844
570	0.064408
582	0.058765
594	0.0389172
606	0.024907
618	0.0227666
630	0.0206261
642	0.0330796
654	0.140491
666	0.215796
678	0.0809478
690	0.0651863
702	0.116362
714	0.11033
726	0.115
738	0.290517
750	0.56391
762	0.417582
774	0.215601
786	0.135043
798	0.103131
810	0.0433927
822	0.0295771
834	0.0408631
846	0.229028
858	0.435483
870	0.107411
882	0.0291879
894	0.0233503
906	0.0235449
918	0.0239341
930	0.0321067
942	0.0443656
954	0.0358038
966	0.0402793
978	0.0546787
990	0.0844503
1002	0.175517
1014	0.342666
1026	0.421473
1038	0.445797
1050	0.295771
1062	0.0957363
1074	0.0910662
1086	0.193808
1098	0.223774
1110	0.110525
1122	0.0651863
1134	0.0912608
1146	0.125313
1158	0.184468
1170	0.15489
1182	0.0920392
1194	0.0862016
1206	0.0778344
1218	0.103325
1230	0.173182
1242	0.410382
1254	0.759858
1266	0.873886
1278	1.09299
1290	0.984411
1302	0.498919
1314	0.310948
1326	0.202564
1338	0.272031
1350	0.754605
1362	1.21499
1374	0.524798
1386	0.140491
1398	0.106439
1410	0.102158
1422	0.118503
1434	0.209375
1446	0.281566
1458	0.269696
1470	0.351422
1482	0.544646
1494	0.837498
1506	0.644274
1518	0.584147
1530	0.901712
1542	1.58743
1554	1.6639
1566	0.813175
1578	0.500281
1590	0.638631
1602	0.884393
1614	0.87875
1626	0.390534
1638	0.123757
1650	0.075694
1662	0.0560408
1674	0.0511761
1686	0.0455331
1698	0.0465061
1710	0.0359984
1722	0.032885
1734	0.038528
1746	0.0324959
1758	0.0274366
1770	0.0315229
1782	0.0346363
1794	0.0346363
1806	0.0326904
1818	0.0299662
1830	0.0293825
1842	0.0278258
1854	0.0231557
1866	0.027242
1878	0.0264637
1890	0.0274366
1902	0.0358038
1914	0.0379443
1926	0.0295771
1938	0.0354147
1950	0.0323013
1962	0.0194586
1974	0.016929
1986	0.0173182
1998	0.019264
2010	0.0235449
2022	0.0278258
2034	0.0311338
2046	0.0373605
2058	0.0404739
2070	0.0428089
2082	0.0340526
2094	0.0217936
2106	0.0196532
2118	0.0200424
2130	0.019264
2142	0.019264
2154	0.0177073
2166	0.0161506
2178	0.0165398
2190	0.0163452
2202	0.0161506
2214	0.0165398
2226	0.016929
2238	0.0173182
2250	0.0186803
2262	0.019264
2274	0.0223774
2286	0.0266583
2298	0.0258799
2310	0.0247124
2322	0.0254908
2334	0.0247124
2346	0.0254908
2358	0.0251016
2370	0.0245178
2382	0.0260745
2394	0.027242
2406	0.0266583
2418	0.022572
2430	0.0198478
2442	0.0204315
2454	0.021599
2466	0.0190694
2478	0.0184857
2490	0.0206261
2502	0.0233503
2514	0.024907
2526	0.0262691
2538	0.028215
2550	0.0301608
2562	0.0330796
2574	0.0309392
2586	0.0264637
2598	0.0247124
2610	0.0239341
2622	0.0233503
2634	0.0231557
2646	0.0235449
2658	0.022572
2670	0.0219882
2682	0.0229611
2694	0.0256854
2706	0.0280204
2718	0.0293825
2730	0.0266583
2742	0.0264637
2754	0.0278258
2766	0.028215
2778	0.027242
2790	0.0280204
2802	0.0299662
2814	0.0358038
2826	0.049814
2838	0.0976822
2850	0.178046
2862	0.136599
2874	0.0856178
2886	0.0992389
2898	0.124535
2910	0.136016
2922	0.140297
2934	0.165982
2946	0.258799
2958	0.271253
2970	0.209958
2982	0.15022
2994	0.103909
3006	0.113444
3018	0.172987
3030	0.144188
3042	0.0895096
3054	0.0811424
3066	0.0934013
3078	0.150026
3090	0.164036
3102	0.080364
3114	0.0389172
3126	0.0297717
3138	0.0254908
3150	0.0229611
3162	0.0208207
3174	0.0202369
3186	0.0198478
3198	0.0198478
3210	0.019264
3222	0.0190694
3234	0.0186803
3246	0.0173182
3258	0.0171236
3270	0.0180965
3282	0.016929
3294	0.0173182
3306	0.0177073
3318	0.0179019
3330	0.0180965
3342	0.0173182
3354	0.0179019
3366	0.0180965
3378	0.0180965
3390	0.0177073
3402	0.0171236
3414	0.0179019
3426	0.0173182
3438	0.0186803
3450	0.0177073
3462	0.0179019
3474	0.0180965
3486	0.0186803
3498	0.0186803
3510	0.0182911
3522	0.0180965
3534	0.0182911
3546	0.0190694
3558	0.0184857
3570	0.019264
3582	0.0177073
3594	0.0182911
3606	0.019264
3618	0.0186803
3630	0.016929
3642	0.0198478
3654	0.0196532
3666	0.0175127
3678	0.0198478
3690	0.0180965
3702	0.0184857
3714	0.0184857
3726	0.0194586
3738	0.0204315
3750	0.0179019
3762	0.0175127
3774	0.0186803
3786	0.0179019
3798	0.0180965
3810	0.0173182
3822	0.0186803
3834	0.0175127
3846	0.0184857
3858	0.0196532
3870	0.0200424
3882	0.0210153
3894	0.0202369
3906	0.0186803
3918	0.0196532
3930	0.0186803
3942	0.0198478
3954	0.0190694
3966	0.0190694
