Infrared Spectrum: Isoquinoline, 1,2,3,4-tetrahydro-
Formula: C 9 H 11 N
CAS: 91-21-4
Origin: Sadtler Research Labs Under US-EPA Contract
1/CM	ABSORBANCE
450	0.00663546
462	0.0300297
474	0.0204168
486	0.0171416
498	0.0268821
510	0.0017014
522	0.00455124
534	0.00986812
546	0.0145895
558	0.0235219
570	0.0294768
582	0.0409187
594	0.0534665
606	0.0495107
618	0.0316035
630	0.0372607
642	0.0337728
654	0.0271799
666	0.0142492
678	0.034028
690	0.0487876
702	0.057082
714	0.0686515
726	0.17954
738	0.374223
750	0.294257
762	0.18894
774	0.0993618
786	0.0654188
798	0.0384091
810	0.0313483
822	0.0522755
834	0.0347086
846	0.0275627
858	0.0274351
870	0.0245852
882	0.0213951
894	0.0145895
906	0.0154402
918	0.0171841
930	0.0224585
942	0.0484048
954	0.0319438
966	0.0237771
978	0.0243726
990	0.0270523
1002	0.0276903
1014	0.0191833
1026	0.0157805
1038	0.0339429
1050	0.0259038
1062	0.0199915
1074	0.0199915
1086	0.017652
1098	0.0172267
1110	0.0343683
1122	0.0713312
1134	0.0736281
1146	0.0283283
1158	0.0141216
1170	0.0165036
1182	0.0188005
1194	0.0301573
1206	0.0277754
1218	0.027903
1230	0.0199489
1242	0.0144194
1254	0.0281582
1266	0.0336452
1278	0.0213526
1290	0.0190131
1302	0.0275201
1314	0.0531262
1326	0.0533814
1338	0.0290514
1350	0.0295618
1362	0.040706
1374	0.032199
1386	0.0273075
1398	0.0213951
1410	0.0131008
1422	0.0276477
1434	0.0575073
1446	0.079583
1458	0.0774988
1470	0.0564014
1482	0.0435133
1494	0.0837939
1506	0.0640152
1518	0.0176095
1530	0.0132709
1542	0.0139515
1554	0.0143768
1566	0.0167163
1578	0.0304976
1590	0.0336452
1602	0.0277328
1614	0.0286686
1626	0.0339855
1638	0.0320714
1650	0.0205869
1662	0.0161633
1674	0.0176946
1686	0.0106337
1698	0.00940023
1710	0.00940023
1722	0.00646532
1734	0.000893235
1746	0.000723095
1758	0.00246703
1770	0.00348787
1782	0.00429604
1794	0.0059549
1806	0.00599743
1818	0.00706081
1830	0.00820926
1842	0.00714588
1854	0.0068056
1866	0.00689067
1878	0.00667799
1890	0.00965545
1902	0.0107188
1914	0.00799658
1926	0.0077839
1938	0.0112292
1950	0.00961291
1962	0.0041259
1974	0.00416843
1986	0.00378561
1998	0.00370054
2010	0.00378561
2022	0.00357294
2034	0.00336026
2046	0.00348787
2058	0.00327519
2070	0.00323266
2082	0.00323266
2094	0.00267971
2106	0.00293491
2118	0.00233943
2130	0.00225435
2142	0.00229689
2154	0.00199914
2166	0.0025521
2178	0.00225435
2190	0.00276477
2202	0.00233943
2214	0.00208421
2226	0.00221182
2238	0.00238196
2250	0.00284984
2262	0.00276477
2274	0.00280731
2286	0.00331773
2298	0.00548701
2310	0.00731602
2322	0.00548701
2334	0.00378561
2346	0.00599743
2358	0.00323266
2370	0.00153126
2382	0.00314759
2394	0.00165887
2406	0.00221182
2418	0.00233943
2430	0.001829
2442	0.00225435
2454	0.00204168
2466	0.00136112
2478	0.0008507
2490	0.00136112
2502	0.00174393
2514	0.00208421
2526	0.00238196
2538	0.00216928
2550	0.00250957
2562	0.00267971
2574	0.00323266
2586	0.00387069
2598	0.00442364
2610	0.00540195
2622	0.00761376
2634	0.0093577
2646	0.00871967
2658	0.00812418
2670	0.00914502
2682	0.0134411
2694	0.0171416
2706	0.0187579
2718	0.0209698
2730	0.0276052
2742	0.0396001
2754	0.0412164
2766	0.0437685
2778	0.0576775
2790	0.0746915
2802	0.0961291
2814	0.128286
2826	0.0865587
2838	0.0798382
2850	0.104976
2862	0.0992342
2874	0.0920032
2886	0.0982984
2898	0.119226
2910	0.150787
2922	0.206465
2934	0.26997
2946	0.251382
2958	0.234963
2970	0.117439
2982	0.0290939
2994	0.0233942
3006	0.0436834
3018	0.0945553
3030	0.111739
3042	0.0762653
3054	0.0800083
3066	0.101276
3078	0.103998
3090	0.0632495
3102	0.0213526
3114	0.0132284
3126	0.00744362
3138	0.00429604
3150	0.00421096
3162	0.00489152
3174	0.00450871
3186	0.00387069
3198	0.00327519
3210	0.00314759
3222	0.00374308
3234	0.00314759
3246	0.00344533
3258	0.00391322
3270	0.00361547
3282	0.00331773
3294	0.00301998
3306	0.00306252
3318	0.00276477
3330	0.00395576
3342	0.00527434
3354	0.00370054
3366	0.0034028
3378	0.00446618
3390	0.00229689
3402	0.00259464
3414	0.00272224
3426	0.00284984
3438	0.00370054
3450	0.0024245
3462	0.00233943
3474	0.0025521
3486	0.00267971
3498	0.00306252
3510	0.00221182
3522	0.00221182
3534	0.00233943
3546	0.00199914
3558	0.00195661
3570	0.00246703
3582	0.00199914
3594	0.00327519
3606	0.00331773
3618	0.00289238
3630	0.00395576
3642	0.0024245
3654	0.00233943
3666	0.00395576
3678	0.00276477
3690	0.00276477
3702	0.00404082
3714	0.0035304
3726	0.00153126
3738	0.00267971
3750	0.00399829
3762	0.00233943
3774	0.00246703
3786	0.00238196
3798	0.00497659
3810	0.00442364
3822	0.00178647
3834	0.00327519
3846	0.00395576
3858	0.00110591
3870	0.00493406
3882	0.00484899
3894	0.00361547
3906	0.00591237
3918	0.00484899
3930	0.00455124
3942	0.00391322
3954	0.00612504
3966	0.00284984
