Infrared Spectrum: Quinoline
Formula: C 9 H 7 N
CAS: 91-22-5
Origin: Sadtler Research Labs Under US-EPA Contract
1/CM	ABSORBANCE
450	0.0293973
462	0.0613611
474	0.157369
486	0.0901751
498	0.0240311
510	0.00909917
522	0.0122489
534	0.00746598
546	0.00758264
558	0.010849
570	0.010499
582	0.00408296
594	0.011199
606	0.115489
618	0.136138
630	0.0313805
642	0.00816592
654	0.0018665
666	0.00373299
678	0.00314971
690	0.00443293
702	0.00991576
714	0.0377965
726	0.10919
738	0.121439
750	0.0962412
762	0.0961245
774	0.229696
786	0.723384
798	1.02879
810	0.601128
822	0.260959
834	0.0830591
846	0.0300972
858	0.014932
870	0.00956579
882	0.00606611
894	0.0159819
906	0.0162152
918	0.0123655
930	0.0547117
942	0.0706935
954	0.0614777
966	0.0389631
978	0.0348801
990	0.0139987
1002	0.0297473
1014	0.0481789
1026	0.104057
1038	0.0895918
1050	0.0118989
1062	0.00244978
1074	0.00606611
1086	0.0244978
1098	0.0382632
1110	0.120622
1122	0.127505
1134	0.0773429
1146	0.0738432
1158	0.0185483
1170	0.00501621
1182	0.0068827
1194	0.0068827
1206	0.0162152
1218	0.021348
1230	0.0128322
1242	0.017965
1254	0.0262476
1266	0.025081
1278	0.0184316
1290	0.0116656
1302	0.0416462
1314	0.0753598
1326	0.0664939
1338	0.0335969
1350	0.0212314
1362	0.0727933
1374	0.0930915
1386	0.0466624
1398	0.0398964
1410	0.0202981
1422	0.0521452
1434	0.0815425
1446	0.0713935
1458	0.0402463
1470	0.029514
1482	0.0451459
1494	0.326403
1506	0.392197
1518	0.0771096
1530	0.047829
1542	0.0352301
1554	0.0488789
1566	0.150603
1578	0.189216
1590	0.163785
1602	0.173234
1614	0.14302
1626	0.151653
1638	0.043396
1650	0.0156319
1662	0.0163318
1674	0.0226313
1686	0.017965
1698	0.0172651
1710	0.0174984
1722	0.0122489
1734	0.0268309
1746	0.0407129
1758	0.0314971
1770	0.022048
1782	0.0135321
1794	0.0122489
1806	0.0268309
1818	0.0274142
1830	0.0215814
1842	0.0228646
1854	0.0103824
1866	0.00408296
1878	0.0167985
1890	0.0326637
1902	0.0312638
1914	0.0405963
1926	0.0528452
1938	0.0458458
1950	0.0521452
1962	0.0321971
1974	0.00606611
1986	0.00384965
1998	0.00338302
2010	0.00338302
2022	0.00314971
2034	0.0047829
2046	0.00594946
2058	0.00536618
2070	0.00536618
2082	0.00524952
2094	0.00349968
2106	0.00221646
2118	0.00303306
2130	0.00279974
2142	0.00268309
2154	0.00361634
2166	0.00349968
2178	0.00314971
2190	0.00174984
2202	0.0010499
2214	0.00151653
2226	0.00233312
2238	0.00384965
2250	0.00828258
2262	0.0130655
2274	0.0109657
2286	0.00653274
2298	0.00244978
2310	0.00116656
2322	0.00303306
2334	0.00256643
2346	0.0018665
2358	0.00489955
2370	0.00116656
2382	0.00303306
2394	0.00373299
2406	0.00338302
2418	0.00466624
2430	0.00618277
2442	0.00594946
2454	0.00501621
2466	0.00536618
2478	0.0047829
2490	0.00431627
2502	0.00256643
2514	0.00338302
2526	0.00373299
2538	0.00431627
2550	0.00384965
2562	0.00361634
2574	0.00408296
2586	0.00419962
2598	0.00314971
2610	0.0029164
2622	0.00443293
2634	0.00466624
2646	0.00373299
2658	0.0029164
2670	0.00198315
2682	0.00244978
2694	0.00268309
2706	0.00279974
2718	0.00256643
2730	0.00279974
2742	0.00326637
2754	0.00279974
2766	0.00373299
2778	0.00384965
2790	0.00443293
2802	0.00384965
2814	0.00524952
2826	0.00594946
2838	0.00653274
2850	0.0106157
2862	0.0148153
2874	0.0130655
2886	0.0130655
2898	0.0150486
2910	0.0198315
2922	0.0274142
2934	0.0384965
2946	0.0447959
2958	0.0489955
2970	0.039663
2982	0.0485289
2994	0.0814259
3006	0.142904
3018	0.162852
3030	0.260376
3042	0.423345
3054	0.47199
3066	0.512003
3078	0.534051
3090	0.382865
3102	0.138237
3114	0.0538951
3126	0.0130655
3138	0.00676605
3150	0.00454958
3162	0.00559949
3174	0.0076993
3186	0.0103824
3198	0.0113156
3210	0.00734933
3222	0.00676605
3234	0.00559949
3246	0.00419962
3258	0.00349968
3270	0.00361634
3282	0.00303306
3294	0.00256643
3306	0.00314971
3318	0.00268309
3330	0.00279974
3342	0.00268309
3354	0.00268309
3366	0.00279974
3378	0.00244978
3390	0.00233312
3402	0.00349968
3414	0.00303306
3426	0.00349968
3438	0.00408296
3450	0.00338302
3462	0.00408296
3474	0.00314971
3486	0.00326637
3498	0.00338302
3510	0.00326637
3522	0.00361634
3534	0.00349968
3546	0.00361634
3558	0.00338302
3570	0.00513286
3582	0.00431627
3594	0.00571614
3606	0.00443293
3618	0.00419962
3630	0.00548283
3642	0.0029164
3654	0.00151653
3666	0.00419962
3678	0.00466624
3690	0.00268309
3702	0.00373299
3714	0.00373299
3726	0.00443293
3738	0.0018665
3750	0.00314971
3762	0.0029164
3774	0.00163318
3786	0.0018665
3798	0.00058328
3810	0.00419962
3822	0.00559949
3834	0.00349968
3846	0.00443293
3858	0.00349968
3870	0.0058328
3882	0.0113156
3894	0.00198315
3906	0.00454958
3918	0.00326637
3930	0.0018665
3942	0.00361634
3954	0.00279974
3966	0.00361634
