Infrared Spectrum: Acetamide, N-butyl-N-phenyl-
Formula: C 12 H 17 N O
CAS: 91-49-6
Origin: Sadtler Research Labs Under US-EPA Contract
1/CM	ABSORBANCE
450	0.00691111
462	0.0179094
474	0.0243004
486	0.0214765
498	0.032995
510	0.0302454
522	0.0159773
534	0.0254894
546	0.0418382
558	0.0554375
570	0.0720093
582	0.0292793
594	0.0313601
606	0.0301711
618	0.0227398
630	0.0286105
642	0.0240031
654	0.0209563
666	0.0251178
678	0.020659
690	0.0456282
702	0.125143
714	0.0396088
726	0.0321032
738	0.0372308
750	0.0277931
762	0.0321775
774	0.0361904
786	0.0249692
798	0.0243004
810	0.0202131
822	0.014491
834	0.0217737
846	0.0161259
858	0.0147883
870	0.0214765
882	0.0174636
894	0.0151599
906	0.0250435
918	0.0187269
930	0.0186526
942	0.0227398
954	0.0292793
966	0.0293536
978	0.0269013
990	0.0235572
1002	0.0222196
1014	0.0214765
1026	0.0261582
1038	0.0246719
1050	0.0208076
1062	0.0260839
1074	0.036562
1086	0.0357446
1098	0.0359675
1110	0.0240774
1122	0.0213278
1134	0.0237058
1146	0.0266041
1158	0.0195443
1170	0.014491
1182	0.0154571
1194	0.0176122
1206	0.032995
1218	0.068145
1230	0.0506815
1242	0.0487493
1254	0.0601935
1266	0.0911077
1278	0.150484
1290	0.203915
1302	0.168245
1314	0.0795149
1326	0.0492695
1338	0.0501613
1350	0.0643551
1362	0.110058
1374	0.177237
1386	0.21848
1398	0.166907
1410	0.0741644
1422	0.0485264
1434	0.051053
1446	0.0609367
1458	0.0590045
1470	0.0506072
1482	0.0458511
1494	0.145208
1506	0.103592
1518	0.0283876
1530	0.0243747
1542	0.0253407
1554	0.0211049
1566	0.0214021
1578	0.0277931
1590	0.0705974
1602	0.117117
1614	0.0352987
1626	0.0298738
1638	0.0320289
1650	0.0390143
1662	0.0412437
1674	0.079069
1686	0.468098
1698	0.592052
1710	0.0750561
1722	0.0248205
1734	0.00980932
1746	0.00705974
1758	0.00237802
1770	0.0115185
1782	0.01568
1794	0.0162002
1806	0.0113699
1818	0.00936344
1830	0.00951206
1842	0.0101066
1854	0.00817443
1866	0.00958638
1878	0.0104038
1890	0.0100323
1902	0.00847168
1914	0.00787718
1926	0.00765424
1938	0.009735
1950	0.0108497
1962	0.00951206
1974	0.00728267
1986	0.00646523
1998	0.00631661
2010	0.00601935
2022	0.00631661
2034	0.00564779
2046	0.00601935
2058	0.00564779
2070	0.00520191
2082	0.00564779
2094	0.00594504
2106	0.00535054
2118	0.00535054
2130	0.00475603
2142	0.00431015
2154	0.00445878
2166	0.00505328
2178	0.00497897
2190	0.00475603
2202	0.00505328
2214	0.00431015
2226	0.00445878
2238	0.00453309
2250	0.00408721
2262	0.00349271
2274	0.0034184
2286	0.00297252
2298	0.00126332
2310	0.000594504
2322	0.00222939
2334	0.00423584
2346	0.00260096
2358	0.00378996
2370	0.00460741
2382	0.00245233
2394	0.00386428
2406	0.00386428
2418	0.00431015
2430	0.00386428
2442	0.00364134
2454	0.0034184
2466	0.00356702
2478	0.00326977
2490	0.00356702
2502	0.00371565
2514	0.0034184
2526	0.00356702
2538	0.00371565
2550	0.0040129
2562	0.00378996
2574	0.00371565
2586	0.00475603
2598	0.00386428
2610	0.00416153
2622	0.00445878
2634	0.00393859
2646	0.00483035
2658	0.00535054
2670	0.00460741
2682	0.00468172
2694	0.00431015
2706	0.00393859
2718	0.00438447
2730	0.00453309
2742	0.00505328
2754	0.00505328
2766	0.00453309
2778	0.00490466
2790	0.00557348
2802	0.00594504
2814	0.0074313
2826	0.00884325
2838	0.0110726
2850	0.0169434
2862	0.0349271
2874	0.0622
2886	0.0642807
2898	0.0419125
2910	0.050087
2922	0.0773598
2934	0.115259
2946	0.124549
2958	0.0900674
2970	0.150038
2982	0.0792177
2994	0.0344069
3006	0.0222939
3018	0.0216994
3030	0.0262325
3042	0.0399804
3054	0.0292793
3066	0.0312858
3078	0.0448851
3090	0.0277931
3102	0.0195443
3114	0.0112956
3126	0.00594504
3138	0.00490466
3150	0.00497897
3162	0.00423584
3174	0.00393859
3186	0.00438447
3198	0.00349271
3210	0.00371565
3222	0.00326977
3234	0.00319546
3246	0.00334409
3258	0.00289821
3270	0.0034184
3282	0.00319546
3294	0.00326977
3306	0.00304683
3318	0.00356702
3330	0.00393859
3342	0.00356702
3354	0.00497897
3366	0.00906619
3378	0.00549916
3390	0.00349271
3402	0.0017092
3414	0.00193214
3426	0.00334409
3438	0.00200645
3450	0.00193214
3462	0.00237802
3474	0.00193214
3486	0.00222939
3498	0.00215508
3510	0.00215508
3522	0.00185783
3534	0.0023037
3546	0.00319546
3558	0.00148626
3570	0.00237802
3582	0.0034184
3594	0.00297252
3606	0.00334409
3618	0.00200645
3630	0.0017092
3642	0.00334409
3654	0.00252664
3666	0.00215508
3678	0.00163489
3690	0.00297252
3702	0.00386428
3714	0.00193214
3726	0.00304683
3738	0.0034184
3750	0.000520191
3762	0.0023037
3774	0.00118901
3786	0.00252664
3798	0.00178351
3810	0.00126332
3822	0.000445878
3834	0.00208076
3846	0.00148626
3858	0.0023037
3870	0.00274958
3882	0.00416153
3894	0.00148626
3906	0.00126332
3918	0.00185783
3930	0.00408721
3942	0.000817443
3954	0.00260096
3966	0.00326977
