Infrared Spectrum: Benzene, 1-chloro-2,5-diethoxy-4-nitro-
Formula: C 10 H 12 Cl N O 4
CAS: 91-43-0
Origin: Sadtler Research Labs Under US-EPA Contract
1/CM	ABSORBANCE
450	0
462	0.0341541
474	0.0252514
486	0.0246039
498	0.0181292
510	0.0273557
522	0.0302693
534	0.0309168
546	0.0341541
558	0.0314024
570	0.0236327
582	0.0288125
594	0.0341541
606	0.027032
618	0.031888
630	0.0364203
642	0.0275176
654	0.0268701
666	0.0289744
678	0.0223378
690	0.028165
702	0.0283269
714	0.0283269
726	0.0322117
738	0.0346398
750	0.0296218
762	0.0296218
774	0.0317261
786	0.0331829
798	0.0292981
810	0.0271938
822	0.0302693
834	0.0344779
846	0.0341541
858	0.0333448
870	0.0312405
882	0.0364203
894	0.0432188
906	0.0459705
918	0.0799628
930	0.0645853
942	0.105376
954	0.342998
966	0.119297
978	0.0938834
990	0.189224
1002	0.654109
1014	0.379419
1026	0.0998726
1038	0.109261
1050	0.0668515
1062	0.0411145
1074	0.035611
1086	0.0369059
1098	0.0437044
1110	0.0618336
1122	0.080934
1134	0.259474
1146	0.160087
1158	0.0393339
1170	0.0359347
1182	0.0326973
1194	0.0388483
1206	0.0372296
1218	0.0352872
1230	0.036744
1242	0.0391721
1254	0.0454849
1266	0.0411145
1278	0.0378771
1290	0.0339923
1302	0.0351254
1314	0.0401433
1326	0.102139
1338	0.0861138
1350	0.0338304
1362	0.0309168
1374	0.0360966
1386	0.0608624
1398	0.0424094
1410	0.0322117
1422	0.0317261
1434	0.0344779
1446	0.0678227
1458	0.027032
1470	0.0388483
1482	0.0548733
1494	0.211885
1506	1.23117
1518	1.56154
1530	0.680493
1542	0.122858
1554	0.0819052
1566	0.051474
1578	0.0359347
1590	0.0369059
1602	0.0385246
1614	0.0339923
1626	0.0409526
1638	0.076078
1650	0.115736
1662	0.0529308
1674	0.0271938
1686	0.022014
1698	0.0224997
1710	0.0362584
1722	0.0386865
1734	0.023309
1746	0.027032
1758	0.0305931
1770	0.0203954
1782	0.020881
1794	0.0182911
1806	0.0218522
1818	0.0239565
1830	0.0212047
1842	0.0228234
1854	0.0252514
1866	0.022014
1878	0.0247658
1890	0.0221759
1902	0.0246039
1914	0.0242802
1926	0.0241183
1938	0.0241183
1950	0.0239565
1962	0.0239565
1974	0.0231471
1986	0.0229853
1998	0.0223378
2010	0.0226615
2022	0.023309
2034	0.027032
2046	0.0292981
2058	0.028165
2070	0.0265464
2082	0.0260607
2094	0.0242802
2106	0.0247658
2118	0.0254133
2130	0.0239565
2142	0.023309
2154	0.0229853
2166	0.0231471
2178	0.0221759
2190	0.0223378
2202	0.0216903
2214	0.0218522
2226	0.0226615
2238	0.0241183
2250	0.0241183
2262	0.0224997
2274	0.0239565
2286	0.0221759
2298	0.0200716
2310	0.0187767
2322	0.0181292
2334	0.0178055
2346	0.0160249
2358	0.0166724
2370	0.0160249
2382	0.0174817
2394	0.0216903
2406	0.0223378
2418	0.0224997
2430	0.0239565
2442	0.0262226
2454	0.0263845
2466	0.0262226
2478	0.0247658
2490	0.0275176
2502	0.0249277
2514	0.0215284
2526	0.0216903
2538	0.0212047
2550	0.0205572
2562	0.0203954
2574	0.0203954
2586	0.0203954
2598	0.0194242
2610	0.0181292
2622	0.0160249
2634	0.0182911
2646	0.0241183
2658	0.0242802
2670	0.023309
2682	0.0260607
2694	0.0224997
2706	0.0199098
2718	0.0187767
2730	0.0181292
2742	0.0192623
2754	0.0186148
2766	0.0191004
2778	0.0199098
2790	0.0202335
2802	0.0200716
2814	0.0194242
2826	0.0192623
2838	0.0199098
2850	0.0199098
2862	0.019586
2874	0.0186148
2886	0.0194242
2898	0.019586
2910	0.0205572
2922	0.0212047
2934	0.0216903
2946	0.0242802
2958	0.0265464
2970	0.0237946
2982	0.020881
2994	0.0194242
3006	0.0191004
3018	0.0189386
3030	0.0191004
3042	0.0194242
3054	0.0212047
3066	0.0191004
3078	0.0189386
3090	0.018453
3102	0.0200716
3114	0.0203954
3126	0.0192623
3138	0.0200716
3150	0.020881
3162	0.0207191
3174	0.0181292
3186	0.019586
3198	0.0194242
3210	0.0192623
3222	0.0197479
3234	0.0194242
3246	0.0197479
3258	0.0210428
3270	0.0207191
3282	0.0203954
3294	0.0203954
3306	0.0212047
3318	0.0205572
3330	0.022014
3342	0.0197479
3354	0.0203954
3366	0.0192623
3378	0.0197479
3390	0.0197479
3402	0.0212047
3414	0.019586
3426	0.0199098
3438	0.0202335
3450	0.0186148
3462	0.019586
3474	0.0199098
3486	0.0194242
3498	0.0174817
3510	0.0181292
3522	0.0191004
3534	0.0203954
3546	0.0205572
3558	0.0197479
3570	0.019586
3582	0.0197479
3594	0.0178055
3606	0.0174817
3618	0.0178055
3630	0.0212047
3642	0.0181292
3654	0.0161868
3666	0.0200716
3678	0.0176436
3690	0.0182911
3702	0.0173199
3714	0.0176436
3726	0.0189386
3738	0.0191004
3750	0.0182911
3762	0.0182911
3774	0.0191004
3786	0.0174817
3798	0.0202335
3810	0.0199098
3822	0.0179673
3834	0.0169961
3846	0.0186148
3858	0.0187767
3870	0.0221759
3882	0.0192623
3894	0.0187767
3906	0.0166724
3918	0.0163487
3930	0.0173199
3942	0.0160249
3954	0.0207191
3966	0.0181292
