Infrared Spectrum: 2-Naphthalenamine
Formula: C 10 H 9 N
CAS: 91-59-8
Origin: Sadtler Research Labs Under US-EPA Contract
1/CM	ABSORBANCE
450	0.129277
462	0.129339
474	0.0803816
486	0.0465497
498	0.0449445
510	0.0452532
522	0.0387091
534	0.0321032
546	0.0288312
558	0.0208054
570	0.0247565
582	0.027473
594	0.0369187
606	0.0466114
618	0.0935933
630	0.0907534
642	0.168172
654	0.213672
666	0.136254
678	0.0932846
690	0.0816163
702	0.0667994
714	0.0563659
726	0.11267
738	0.203856
750	0.118905
762	0.0371657
774	0.0268556
786	0.061737
798	0.130018
810	0.115325
822	0.118041
834	0.217191
846	0.13434
858	0.0539581
870	0.0351284
882	0.0182742
894	0.017595
906	0.0196324
918	0.0145699
930	0.014076
942	0.0169159
954	0.0362396
966	0.0166073
978	0.00524764
990	0.00487722
1002	0.0040129
1014	0.0219784
1026	0.0138291
1038	0.00456854
1050	0.00796407
1062	0.0133352
1074	0.0217314
1086	0.0285842
1098	0.0253739
1110	0.0195089
1122	0.0402525
1134	0.0477227
1146	0.0360544
1158	0.0327206
1170	0.0502539
1182	0.0985323
1194	0.0374744
1206	0.0237687
1218	0.0965567
1230	0.0761835
1242	0.0122239
1254	0.0391413
1266	0.0721706
1278	0.211079
1290	0.161813
1302	0.00425985
1314	0.000987792
1326	0.00716149
1338	0.0145699
1350	0.0324737
1362	0.0452532
1374	0.0513034
1386	0.0819867
1398	0.0398204
1410	0.00845797
1422	0.00543286
1434	0.00444506
1446	0.0311772
1458	0.0555633
1470	0.0923586
1482	0.075813
1494	0.0451915
1506	0.127487
1518	0.228242
1530	0.0468584
1542	0.017595
1554	0.0160516
1566	0.0298807
1578	0.0527851
1590	0.0743313
1602	0.134525
1614	0.224414
1626	0.461546
1638	0.61737
1650	0.275162
1662	0.1315
1674	0.0987175
1686	0.0444506
1698	0.0235218
1710	0.0172864
1722	0.0174098
1734	0.0195706
1746	0.0122239
1758	0.00938402
1770	0.0133352
1782	0.00932229
1794	0.00932229
1806	0.0112361
1818	0.0106188
1830	0.010804
1842	0.00623544
1854	0.00635891
1866	0.00858144
1878	0.0161134
1890	0.0197558
1902	0.0170394
1914	0.0159899
1926	0.0181507
1938	0.0176568
1950	0.00555633
1962	0.00302511
1974	0.00314859
1986	0.00376596
1998	0.00327206
2010	0.00358075
2022	0.00351901
2034	0.00524764
2046	0.00679107
2058	0.00635891
2070	0.00703802
2082	0.00753191
2094	0.00648238
2106	0.00549459
2118	0.00444506
2130	0.00395117
2142	0.0045068
2154	0.00413638
2166	0.00463027
2178	0.00537112
2190	0.00425985
2202	0.00376596
2214	0.00339553
2226	0.00364248
2238	0.00358075
2250	0.00413638
2262	0.0045068
2274	0.00537112
2286	0.00703802
2298	0.00777886
2310	0.00851971
2322	0.00833449
2334	0.00919881
2346	0.00932229
2358	0.00802581
2370	0.00623544
2382	0.00524764
2394	0.00512417
2406	0.00518591
2418	0.00524764
2430	0.00543286
2442	0.00487722
2454	0.00543286
2466	0.00598849
2478	0.00629717
2490	0.00586501
2502	0.00679107
2514	0.00685281
2526	0.00592675
2538	0.00598849
2550	0.00611196
2562	0.00611196
2574	0.00605023
2586	0.00586501
2598	0.00648238
2610	0.00635891
2622	0.00592675
2634	0.00697628
2646	0.00716149
2658	0.00642065
2670	0.00654412
2682	0.0056798
2694	0.00611196
2706	0.00648238
2718	0.00685281
2730	0.00642065
2742	0.00648238
2754	0.00691454
2766	0.00709975
2778	0.0061737
2790	0.00518591
2802	0.00530938
2814	0.00586501
2826	0.00685281
2838	0.00685281
2850	0.00691454
2862	0.00685281
2874	0.0073467
2886	0.00747018
2898	0.00814928
2910	0.00876665
2922	0.00864318
2934	0.0111127
2946	0.015249
2958	0.0230896
2970	0.0265469
2982	0.0310537
2994	0.0375361
3006	0.0568598
3018	0.107978
3030	0.138353
3042	0.132426
3054	0.223982
3066	0.257382
3078	0.159652
3090	0.0669229
3102	0.0392647
3114	0.0165455
3126	0.00956923
3138	0.0078406
3150	0.00672933
3162	0.00549459
3174	0.00765539
3186	0.00709975
3198	0.00796407
3210	0.00969271
3222	0.0121005
3234	0.00975445
3246	0.00913708
3258	0.0056798
3270	0.00518591
3282	0.00475375
3294	0.00586501
3306	0.00481549
3318	0.00419812
3330	0.00395117
3342	0.00530938
3354	0.00475375
3366	0.00623544
3378	0.00895186
3390	0.0193237
3402	0.0500687
3414	0.0686515
3426	0.0388943
3438	0.0133969
3450	0.00864318
3462	0.0111744
3474	0.0200645
3486	0.0322267
3498	0.0351901
3510	0.0277816
3522	0.0135821
3534	0.00685281
3546	0.00469201
3558	0.00370422
3570	0.00419812
3582	0.00592675
3594	0.00654412
3606	0.00456854
3618	0.00549459
3630	0.00530938
3642	0.0090136
3654	0.0100014
3666	0.00771712
3678	0.00586501
3690	0.00845797
3702	0.00592675
3714	0.00524764
3726	0.00555633
3738	0.00660586
3750	0.00407464
3762	0.00438333
3774	0.00463027
3786	0.00512417
3798	0.00463027
3810	0.00432159
3822	0.00518591
3834	0.00679107
3846	0.00753191
3858	0.00642065
3870	0.00858144
3882	0.00728497
3894	0.0066676
3906	0.00475375
3918	0.00685281
3930	0.00691454
3942	0.00747018
3954	0.00913708
3966	0.00956923
