Infrared Spectrum: Naphthalene, 2-methyl-
Formula: C 11 H 10
CAS: 91-57-6
Origin: Sadtler Research Labs Under US-EPA Contract
1/CM	ABSORBANCE
450	0.0508816
462	0.0975497
474	0.153835
486	0.0524845
498	0.0045798
510	0.00380123
522	0.00746507
534	0.00590794
546	0.000641172
558	0.00196931
570	0.00256469
582	0.00279368
594	0.00201511
606	0.00627433
618	0.0344401
630	0.023586
642	0.00439661
654	0.00338905
666	0
678	0.00819784
690	0.0200595
702	0.0150217
714	0.0187314
726	0.114953
738	0.26659
750	0.106572
762	0.0658575
774	0.0709411
786	0.114449
798	0.221067
810	0.366109
822	0.139363
834	0.0778566
846	0.150034
858	0.0641172
870	0.0294023
882	0.0423174
894	0.0253263
906	0.0124571
918	0.00751087
930	0.0114495
942	0.0256011
954	0.036501
966	0.0193726
978	0.00975497
990	0.013831
1002	0.0300893
1014	0.0383329
1026	0.0262423
1038	0.0137394
1050	0.0114953
1062	0.0106709
1074	0.0092054
1086	0.00641172
1098	0.00522097
1110	0.0114495
1122	0.0242271
1134	0.0277078
1146	0.0217541
1158	0.0148386
1170	0.018365
1182	0.0119075
1194	0.00961758
1206	0.0162583
1218	0.0171742
1230	0.0138768
1242	0.0132356
1254	0.0170369
1266	0.0308679
1278	0.0256927
1290	0.00760247
1302	0.00494618
1314	0.00705289
1326	0.00815204
1338	0.0141516
1350	0.0211587
1362	0.0277994
1374	0.0315548
1386	0.0345775
1398	0.0274788
1410	0.0191894
1422	0.0240439
1434	0.0364552
1446	0.0389741
1458	0.0400275
1470	0.0426837
1482	0.0291275
1494	0.0328372
1506	0.113121
1518	0.0868788
1530	0.0280284
1542	0.0271582
1554	0.0220288
1566	0.0223952
1578	0.0302725
1590	0.04534
1602	0.0748797
1614	0.0484085
1626	0.0316464
1638	0.0513854
1650	0.0438745
1662	0.018823
1674	0.0158919
1686	0.02267
1698	0.0175406
1710	0.00929699
1722	0.0124113
1734	0.0143348
1746	0.0210671
1758	0.0207465
1770	0.0147012
1782	0.0163499
1794	0.0132356
1806	0.0109457
1818	0.0137852
1830	0.0104419
1842	0.0123197
1854	0.00948019
1866	0.00490039
1878	0.00664071
1890	0.0146096
1902	0.0242729
1914	0.0212961
1926	0.0178154
1938	0.0220746
1950	0.0113121
1962	0.00141974
1974	0.000549576
1986	0.000824364
1998	0.00091596
2010	0.000870162
2022	0.000824364
2034	0.00141974
2046	0.00155713
2058	0.000961758
2070	0.00100756
2082	0.00183192
2094	0.00123655
2106	0.00091596
2118	0.000641172
2130	0.000870162
2142	0.00068697
2154	0.00068697
2166	0.000503778
2178	0.000137394
2190	0.000183192
2202	0
2214	0.000183192
2226	0.000549576
2238	0.000641172
2250	0.000824364
2262	0.00155713
2274	0.00201511
2286	0.00375544
2298	0.00412182
2310	0.00343485
2322	0.00338905
2334	0.00306847
2346	0.00375544
2358	0.00283948
2370	0.00164873
2382	0.0023815
2394	0.00256469
2406	0.0023815
2418	0.00302267
2430	0.00256469
2442	0.0022441
2454	0.00215251
2466	0.00183192
2478	0.00183192
2490	0.00215251
2502	0.00215251
2514	0.0023357
2526	0.00183192
2538	0.00178612
2550	0.00160293
2562	0.00174032
2574	0.00114495
2586	0.00137394
2598	0.00174032
2610	0.00160293
2622	0.00196931
2634	0.00169453
2646	0.00178612
2658	0.00164873
2670	0.00178612
2682	0.00128234
2694	0.00160293
2706	0.0022441
2718	0.00320586
2730	0.00535837
2742	0.010213
2754	0.00773986
2766	0.00430501
2778	0.00439661
2790	0.00535837
2802	0.00604534
2814	0.00810625
2826	0.0111747
2838	0.0176322
2850	0.0327456
2862	0.0702083
2874	0.107122
2886	0.0990153
2898	0.0874742
2910	0.106343
2922	0.154202
2934	0.236867
2946	0.169407
2958	0.141562
2970	0.137852
2982	0.120953
2994	0.102084
3006	0.108175
3018	0.169636
3030	0.189558
3042	0.215938
3054	0.398763
3066	0.443416
3078	0.241493
3090	0.120769
3102	0.0599496
3114	0.0239982
3126	0.0113579
3138	0.00769406
3150	0.00618273
3162	0.00517517
3174	0.00531257
3186	0.00444241
3198	0.00297687
3210	0.00283948
3222	0.00302267
3234	0.00370964
3246	0.00334325
3258	0.00183192
3270	0.00119075
3282	0.000503778
3294	0.00128234
3306	0.000732768
3318	0.000870162
3330	0.00192352
3342	0.000641172
3354	0.00068697
3366	0.00045798
3378	0.00109915
3390	0.00109915
3402	0.00105335
3414	0.00109915
3426	0.00151133
3438	0.00164873
3450	0.00187772
3462	0.00137394
3474	0.000778566
3486	0.000503778
3498	0.00105335
3510	0.00137394
3522	0.00105335
3534	0.00128234
3546	0.00100756
3558	0.00132814
3570	0.000870162
3582	0.00068697
3594	0.000366384
3606	0.00100756
3618	0.00091596
3630	0.00151133
3642	0.00325166
3654	0.00256469
3666	0.00183192
3678	0.00123655
3690	0.0022899
3702	0.000961758
3714	0.00160293
3726	0.00306847
3738	0.00169453
3750	0.00183192
3762	0.00210671
3774	0.00210671
3786	0.00160293
3798	0.00178612
3810	0.00183192
3822	0.00196931
3834	0.00045798
3846	0.00320586
3858	0.00141974
3870	0.00311426
3882	0.0023357
3894	0.00247309
3906	0.00425921
3918	0.00201511
3930	0.00375544
3942	0.00421342
3954	0.00155713
3966	0.00091596
