Infrared Spectrum: Naphthalene, 2-chloro-
Formula: C 10 H 7 Cl
CAS: 91-58-7
Origin: Sadtler Research Labs Under US-EPA Contract
1/CM	ABSORBANCE
450	0.192606
462	0.241806
474	0.170638
486	0.0426184
498	0.0157968
510	0.01736
522	0.0196637
534	0.0039492
546	0.0069111
558	0.0146449
570	0.0174423
582	0.016455
594	0.134437
606	0.233003
618	0.0222142
630	0.0363655
642	0.0569343
654	0.0280558
666	0.0260812
678	0.0146449
690	0.00641745
702	0.0142336
714	0.0461563
726	0.216136
738	0.508048
750	0.263856
762	0.0909961
774	0.0467322
786	0.0937112
798	0.358061
810	0.457778
822	0.169733
834	0.180347
846	0.741133
858	0.534458
870	0.147684
882	0.221155
894	0.0974959
906	0.0293722
918	0.0381756
930	0.0770917
942	0.328771
954	0.149494
966	0.0357073
978	0.0232015
990	0.0227902
1002	0.0454158
1014	0.0264103
1026	0.00419602
1038	0.0141513
1050	0.0222965
1062	0.0771739
1074	0.597646
1086	0.194663
1098	0.0156323
1110	0.0288785
1122	0.0964263
1134	0.197213
1146	0.143734
1158	0.0253407
1170	0.0153031
1182	0.0496941
1194	0.096344
1206	0.0657377
1218	0.0480486
1230	0.0892684
1242	0.0728134
1254	0.0546306
1266	0.0594848
1278	0.0384224
1290	0.0111894
1302	0.0119299
1314	0.0203219
1326	0.029619
1338	0.0920657
1350	0.105477
1362	0.0917366
1374	0.047884
1386	0.0268216
1398	0.018265
1410	0.0170309
1422	0.0270685
1434	0.0368592
1446	0.110742
1458	0.228807
1470	0.10161
1482	0.0852369
1494	0.173765
1506	0.377478
1518	0.05027
1530	0.026328
1542	0.0514219
1554	0.0564406
1566	0.0997996
1578	0.208073
1590	0.261799
1602	0.254394
1614	0.106957
1626	0.206922
1638	0.152538
1650	0.0354605
1662	0.0233661
1674	0.0282203
1686	0.0470613
1698	0.0492004
1710	0.0357896
1722	0.042783
1734	0.0394097
1746	0.0498586
1758	0.040397
1770	0.0288785
1782	0.030524
1794	0.0288785
1806	0.0229547
1818	0.0282203
1830	0.0297013
1842	0.0220497
1854	0.0158791
1866	0.0111071
1878	0.0142336
1890	0.0368592
1902	0.0462385
1914	0.0353782
1926	0.0313468
1938	0.0363655
1950	0.0344732
1962	0.00715792
1974	0.00781613
1986	0.00699337
1998	0.00600607
2010	0.0059238
2022	0.00608835
2034	0.0055947
2046	0.00575925
2058	0.0049365
2070	0.00551242
2082	0.00641745
2094	0.00674655
2106	0.0059238
2118	0.00510105
2130	0.0052656
2142	0.00468967
2154	0.00468967
2166	0.0049365
2178	0.0049365
2190	0.00452512
2202	0.00452512
2214	0.00501877
2226	0.0052656
2238	0.00518332
2250	0.0042783
2262	0.00501877
2274	0.00995527
2286	0.0153854
2298	0.0143158
2310	0.0125881
2322	0.00962617
2334	0.0120944
2346	0.013164
2358	0.0126703
2370	0.0139867
2382	0.0100375
2394	0.00518332
2406	0.00608835
2418	0.00551242
2430	0.00674655
2442	0.00452512
2454	0.00534787
2466	0.00575925
2478	0.00707565
2490	0.00707565
2502	0.00411375
2514	0.00419602
2526	0.0039492
2538	0.00378465
2550	0.00345555
2562	0.00534787
2574	0.00436057
2586	0.00444285
2598	0.00411375
2610	0.00279735
2622	0.00312645
2634	0.00510105
2646	0.00337327
2658	0.00419602
2670	0.00312645
2682	0.00337327
2694	0.0023037
2706	0.00271507
2718	0.00370237
2730	0.00222142
2742	0.0026328
2754	0.00255052
2766	0.0023037
2778	0.00353782
2790	0.00238597
2802	0.0023037
2814	0.0009873
2826	0.00403147
2838	0.00238597
2850	0.00279735
2862	0.00386692
2874	0.0029619
2886	0.00444285
2898	0.0052656
2910	0.0069111
2922	0.0102844
2934	0.0171955
2946	0.0207333
2958	0.0223788
2970	0.0225433
2982	0.0238597
2994	0.0265748
3006	0.0360364
3018	0.0620353
3030	0.0881988
3042	0.110084
3054	0.294956
3066	0.602171
3078	0.393933
3090	0.193099
3102	0.0640922
3114	0.0171955
3126	0.0114362
3138	0.00830978
3150	0.0085566
3162	0.00699337
3174	0.00674655
3186	0.006582
3198	0.00682882
3210	0.00567697
3222	0.00370237
3234	0.0042783
3246	0.00452512
3258	0.00353782
3270	0.00312645
3282	0.0036201
3294	0.00246825
3306	0.0036201
3318	0.00403147
3330	0.00633517
3342	0.00337327
3354	0.00386692
3366	0.00337327
3378	0.00386692
3390	0.00419602
3402	0.00551242
3414	0.00551242
3426	0.00345555
3438	0.00501877
3450	0.00501877
3462	0.00115185
3474	0.000411375
3486	0.0059238
3498	0.00320872
3510	0.00370237
3522	0.00444285
3534	0.0052656
3546	0.00403147
3558	0.00600607
3570	0.00641745
3582	0.0062529
3594	0.0082275
3606	0.00773385
3618	0.00649972
3630	0.0102021
3642	0.00707565
3654	0.00896797
3666	0.0105312
3678	0.0113539
3690	0.0137399
3702	0.0120121
3714	0.012259
3726	0.0134108
3738	0.0167018
3750	0.0143158
3762	0.0134931
3774	0.0120944
3786	0.0146449
3798	0.0144804
3810	0.0165373
3822	0.01736
3834	0.0241066
3846	0.0192523
3858	0.0211447
3870	0.0231193
3882	0.0241066
3894	0.024847
3906	0.0236952
3918	0.0231193
3930	0.0232015
3942	0.0200751
3954	0.00016455
3966	0.00222142
