Infrared Spectrum: Benzenamine, N,N-diethyl-3-methyl-
Formula: C 11 H 17 N
CAS: 91-67-8
Origin: Sadtler Research Labs Under US-EPA Contract
1/CM	ABSORBANCE
450	0.019343
462	0.0125883
474	0.00414493
486	0.00660119
498	0.0023795
510	0.0103623
522	0.0151213
534	0.0112834
546	0.00537306
558	0.00468224
570	0.00905744
582	0.00468224
594	0.0118207
606	0.00782932
618	0.00245626
630	0.00805959
642	0.00828986
654	0.0112067
666	0.00721525
678	0.0414493
690	0.122506
702	0.102702
714	0.0373811
726	0.0198036
738	0.0184987
750	0.0754531
762	0.198112
774	0.161729
786	0.112604
798	0.0544214
810	0.0237182
822	0.0290913
834	0.0618669
846	0.0499695
858	0.0289378
870	0.0198803
882	0.0104391
894	0.0107461
906	0.011744
918	0.0186522
930	0.0325454
942	0.0343108
954	0.0199571
966	0.0204944
978	0.0248696
990	0.0486646
1002	0.0586431
1014	0.0958707
1026	0.157507
1038	0.119896
1050	0.0875809
1062	0.102242
1074	0.136245
1086	0.129414
1098	0.131947
1110	0.0917258
1122	0.0844338
1134	0.152441
1146	0.170403
1158	0.0970221
1170	0.119512
1182	0.182914
1194	0.246163
1206	0.180458
1218	0.074225
1230	0.0531933
1242	0.0743017
1254	0.188134
1266	0.412728
1278	0.324763
1290	0.137934
1302	0.0984805
1314	0.100246
1326	0.12619
1338	0.197345
1350	0.299356
1362	0.315475
1374	0.317087
1386	0.328447
1398	0.157891
1410	0.0838965
1422	0.0760672
1434	0.122275
1446	0.180919
1458	0.167563
1470	0.16526
1482	0.236491
1494	0.497852
1506	0.366519
1518	0.185908
1530	0.144228
1542	0.107001
1554	0.0905744
1566	0.128646
1578	0.283084
1590	0.461546
1602	0.761286
1614	0.502918
1626	0.157047
1638	0.0508906
1650	0.0276329
1662	0.0204176
1674	0.0175776
1686	0.0161192
1698	0.0174241
1710	0.0222598
1722	0.0168868
1734	0.0107461
1746	0.0125883
1758	0.0128953
1770	0.0131256
1782	0.0128953
1794	0.0135862
1806	0.0154284
1818	0.0122813
1830	0.00974827
1842	0.00990178
1854	0.00706174
1866	0.00506603
1878	0.00598712
1890	0.00759904
1902	0.0136629
1914	0.0150446
1926	0.00852014
1938	0.00591037
1950	0.0038379
1962	0.00506603
1974	0.00460548
1986	0.00368438
1998	0.00268653
2010	0.00276329
2022	0.00207247
2034	0.00214922
2046	0.00214922
2058	0.00222598
2070	0.00322384
2082	0.00260977
2094	0.00176543
2106	0.00176543
2118	0.00168868
2130	0.00076758
2142	0.000844338
2154	0.000997854
2166	0.0014584
2178	0.00107461
2190	0.00353087
2202	0.00245626
2214	0.00260977
2226	0.00199571
2238	0.00176543
2250	0.00176543
2262	0.00153516
2274	0.0029168
2286	0.0038379
2298	0.00491251
2310	0.00368438
2322	0.00214922
2334	0.00038379
2346	0.00214922
2358	0.00130489
2370	0.00284005
2382	0.004759
2394	0.00483575
2406	0.00498927
2418	0.00598712
2430	0.00614064
2442	0.00514279
2454	0.00568009
2466	0.004759
2478	0.00491251
2490	0.00445196
2502	0.004759
2514	0.00652443
2526	0.0076758
2538	0.00959475
2550	0.0101321
2562	0.00921096
2574	0.00936448
2586	0.0091342
2598	0.00944123
2610	0.00836662
2622	0.00898069
2634	0.00944123
2646	0.0100553
2658	0.0116672
2670	0.0126651
2682	0.0158889
2694	0.0183452
2706	0.0184987
2718	0.0208014
2730	0.0264815
2742	0.0306264
2754	0.0302427
2766	0.0314708
2778	0.0366136
2790	0.0462851
2802	0.0693892
2814	0.112297
2826	0.148527
2838	0.152134
2850	0.151827
2862	0.17685
2874	0.262973
2886	0.307109
2898	0.255988
2910	0.258291
2922	0.33075
2934	0.477512
2946	0.449572
2958	0.308414
2970	0.466535
2982	0.659889
2994	0.356771
3006	0.149601
3018	0.123197
3030	0.154667
3042	0.185985
3054	0.215997
3066	0.141849
3078	0.102702
3090	0.0905744
3102	0.0671632
3114	0.0419866
3126	0.0247928
3138	0.0151213
3150	0.0114369
3162	0.00898069
3174	0.00790607
3186	0.00583361
3198	0.00437521
3210	0.00391466
3222	0.00276329
3234	0.00222598
3246	0.00222598
3258	0.00199571
3270	0.00199571
3282	0.00330059
3294	0.00199571
3306	0.00284005
3318	0.00276329
3330	0.00230274
3342	0.00122813
3354	0.000614064
3366	0.00138164
3378	0.00207247
3390	0.00161192
3402	0.00253301
3414	0.00168868
3426	0.00214922
3438	0.00176543
3450	0.00260977
3462	0.00184219
3474	0.00176543
3486	0.00161192
3498	0.00260977
3510	0.00168868
3522	0.000997854
3534	0.00107461
3546	0.00138164
3558	0.00245626
3570	0.00207247
3582	0.00253301
3594	0.00314708
3606	0.00276329
3618	0.00107461
3630	0
3642	0.00422169
3654	0.00483575
3666	0.00491251
3678	0.00107461
3690	0.00184219
3702	0.00406817
3714	0.00314708
3726	0.00491251
3738	0.00337735
3750	0.00284005
3762	0.00483575
3774	0.00544982
3786	0.00575685
3798	0.00552658
3810	0.00452872
3822	0.00360763
3834	0.00460548
3846	0.00514279
3858	0.00544982
3870	0.00683146
3882	0.00637091
3894	0.00583361
3906	0.00606388
3918	0.00805959
3930	0.00805959
3942	0.00813635
3954	0.00122813
3966	0.00168868
