Infrared Spectrum: Quinoline, 6-methyl-
Formula: C 10 H 9 N
CAS: 91-62-3
Origin: Sadtler Research Labs Under US-EPA Contract
1/CM	ABSORBANCE
450	0.00676772
462	0.0848934
474	0.203982
486	0.092611
498	0.0375193
510	0.047849
522	0.0287331
534	0.0227965
546	0.0129418
558	0.00213718
570	0.000712392
582	0.0089049
594	0.0136542
606	0.0945107
618	0.122531
630	0.0269522
642	0.00712392
654	0.00201844
666	0.00320576
678	0.00866744
690	0.0127043
702	0.0319389
714	0.0619781
726	0.0213718
738	0.0250525
750	0.0725453
762	0.117901
774	0.110302
786	0.176554
798	0.163375
810	0.18261
822	0.536312
834	0.757035
846	0.30621
858	0.0952231
870	0.176198
882	0.157557
894	0.171924
906	0.187715
918	0.156133
930	0.0474928
942	0.029683
954	0.0409625
966	0.0467804
978	0.0427435
990	0.0254086
1002	0.0451182
1014	0.0654213
1026	0.102347
1038	0.0791942
1050	0.0290893
1062	0.0231527
1074	0.021728
1086	0.0218467
1098	0.0541418
1110	0.163969
1122	0.16765
1134	0.0686271
1146	0.0410813
1158	0.0353821
1170	0.0358571
1182	0.0204219
1194	0.0237464
1206	0.0458306
1218	0.0592473
1230	0.0676772
1242	0.104722
1254	0.145328
1266	0.116832
1278	0.0305141
1290	0.0235089
1302	0.0326513
1314	0.0704081
1326	0.0979539
1338	0.0851308
1350	0.0869118
1362	0.162782
1374	0.203032
1386	0.0878617
1398	0.0396565
1410	0.0337199
1422	0.0568726
1434	0.0723078
1446	0.0943919
1458	0.113033
1470	0.0902363
1482	0.106859
1494	0.541893
1506	0.613488
1518	0.103297
1530	0.0543793
1542	0.0580599
1554	0.0999723
1566	0.241857
1578	0.255393
1590	0.279614
1602	0.286857
1614	0.0791942
1626	0.0644715
1638	0.061147
1650	0.0375193
1662	0.0222029
1674	0.0170974
1686	0.0176911
1698	0.0307516
1710	0.0235089
1722	0.0391816
1734	0.0574663
1746	0.0403689
1758	0.0337199
1770	0.0387066
1782	0.0905925
1794	0.209443
1806	0.31179
1818	0.214311
1830	0.0582974
1842	0.0295643
1854	0.042981
1866	0.0936795
1878	0.0972415
1890	0.0555666
1902	0.0351447
1914	0.0508173
1926	0.0535481
1938	0.0521233
1950	0.0282582
1962	0.00569914
1974	0.00486801
1986	0.00522421
1998	0.00451182
2010	0.00546167
2022	0.00284957
2034	0.00249337
2046	0.00486801
2058	0.00534294
2070	0.0026121
2082	0.00403689
2094	0.00688646
2106	0.00486801
2118	0.00415562
2130	0.00308703
2142	0.00379942
2154	0.00379942
2166	0.00486801
2178	0.00237464
2190	0.000949856
2202	0.000831124
2214	0.00142478
2226	0.00130605
2238	0.00308703
2250	0.00605533
2262	0.00961729
2274	0.00807378
2286	0.0059366
2298	0.00308703
2310	0.00273084
2322	0.00356196
2334	0.00795504
2346	0.0105671
2358	0.0033245
2370	0.0154352
2382	0.0138916
2394	0.0089049
2406	0.00759885
2418	0.00676772
2430	0.00664899
2442	0.00664899
2454	0.00807378
2466	0.00819251
2478	0.0089049
2490	0.00949856
2502	0.00961729
2514	0.010211
2526	0.0100922
2538	0.00866744
2550	0.0089049
2562	0.00700519
2574	0.00712392
2586	0.00997349
2598	0.00949856
2610	0.00842997
2622	0.00878617
2634	0.00842997
2646	0.00759885
2658	0.00688646
2670	0.0055804
2682	0.0055804
2694	0.0059366
2706	0.00759885
2718	0.00866744
2730	0.0116357
2742	0.0204219
2754	0.0185222
2766	0.0113983
2778	0.0110421
2790	0.0122294
2802	0.0135354
2814	0.018166
2826	0.0233902
2838	0.0303954
2850	0.0479677
2862	0.0999723
2874	0.165037
2886	0.160644
2898	0.138323
2910	0.153995
2922	0.247912
2934	0.372462
2946	0.24435
2958	0.18914
2970	0.187715
2982	0.224285
2994	0.216092
3006	0.224997
3018	0.43824
3030	0.533938
3042	0.509716
3054	0.439308
3066	0.436578
3078	0.458424
3090	0.276408
3102	0.0702893
3114	0.0281395
3126	0.0167412
3138	0.0130605
3150	0.0113983
3162	0.0123481
3174	0.0113983
3186	0.013298
3198	0.0142478
3210	0.0124669
3222	0.00831124
3234	0.0092611
3246	0.00676772
3258	0.00712392
3270	0.00439308
3282	0.00439308
3294	0.00356196
3306	0.00617406
3318	0.00748012
3330	0.00664899
3342	0.00510548
3354	0.00569914
3366	0.00439308
3378	0.00510548
3390	0.00605533
3402	0.00653026
3414	0.00463055
3426	0.00546167
3438	0.00510548
3450	0.00653026
3462	0.00581787
3474	0.00546167
3486	0.00344323
3498	0.00510548
3510	0.00368069
3522	0.00451182
3534	0.00510548
3546	0.00427435
3558	0.00273084
3570	0.00605533
3582	0.00284957
3594	0.00439308
3606	0.00237464
3618	0.00391816
3630	0.0108046
3642	0.00961729
3654	0.0111608
3666	0.0129418
3678	0.00807378
3690	0.00736138
3702	0.0062928
3714	0.00759885
3726	0.00522421
3738	0.00534294
3750	0.00878617
3762	0.00605533
3774	0.00748012
3786	0.00724265
3798	0.00166225
3810	0.0026121
3822	0.00546167
3834	0.000831124
3846	0.00486801
3858	0.00427435
3870	0.00427435
3882	0.00320576
3894	0.0029683
3906	0.00700519
3918	0.00688646
3930	0.00807378
3942	0.00379942
3954	0.00700519
3966	0.00902363
