Infrared Spectrum: Benzenamine, N,N-diethyl-
Formula: C 10 H 15 N
CAS: 91-66-7
Origin: Sadtler Research Labs Under US-EPA Contract
1/CM	ABSORBANCE
450	0.00640042
462	0.00660361
474	0.00807672
486	0.0116833
498	0.0186425
510	0.0147311
522	0.0148835
534	0.0151883
546	0.0112261
558	0.0122929
570	0.00827991
582	0.00655281
594	0.00492731
606	0.00284463
618	0.0017271
630	0.00106674
642	0.00233666
654	0.00756875
666	0.0155947
678	0.0544544
690	0.133647
702	0.0832055
714	0.0352023
726	0.0433806
738	0.108147
750	0.163262
762	0.0652741
774	0.030021
786	0.0449045
798	0.0430759
810	0.0161026
822	0.00751796
834	0.0050289
846	0.00594325
858	0.0111245
870	0.0121913
882	0.00954984
894	0.0133088
906	0.00985462
918	0.00599405
930	0.00492731
942	0.00401296
954	0.00447014
966	0.00579086
978	0.0102102
990	0.0249413
1002	0.0373866
1014	0.0529813
1026	0.0581626
1038	0.0799545
1050	0.0449045
1062	0.0521685
1074	0.0770083
1086	0.068068
1098	0.0625819
1110	0.0465808
1122	0.0342372
1134	0.0474444
1146	0.104286
1158	0.0941268
1170	0.0520161
1182	0.0879296
1194	0.148327
1206	0.111449
1218	0.051305
1230	0.0493747
1242	0.102356
1254	0.245502
1266	0.261757
1278	0.111703
1290	0.0580102
1302	0.0487143
1314	0.0499842
1326	0.0635978
1338	0.11155
1350	0.197092
1362	0.2135
1374	0.197194
1386	0.21162
1398	0.108858
1410	0.0469872
1422	0.027278
1434	0.0264652
1446	0.0415519
1458	0.0640042
1470	0.0712174
1482	0.0901647
1494	0.28233
1506	0.50543
1518	0.168748
1530	0.0434314
1542	0.0317989
1554	0.034288
1566	0.0492731
1578	0.0914346
1590	0.213297
1602	0.401246
1614	0.222948
1626	0.0639026
1638	0.0264144
1650	0.0178805
1662	0.0137152
1674	0.0109722
1686	0.00939745
1698	0.00995621
1710	0.010769
1722	0.00817832
1734	0.00746716
1746	0.00751796
1758	0.00736557
1770	0.00655281
1782	0.00533369
1794	0.00589245
1806	0.00624803
1818	0.00655281
1830	0.00584166
1842	0.00441934
1854	0.00355579
1866	0.00518129
1878	0.00538448
1890	0.00594325
1902	0.00883868
1914	0.0120897
1926	0.0108706
1938	0.00736557
1950	0.00365738
1962	0.0033526
1974	0.00441934
1986	0.00386057
1998	0.000965143
2010	0.000355579
2022	0.000355579
2034	0.000304782
2046	0.000609564
2058	0.000457173
2070	0.0017271
2082	0.00238746
2094	0.00228587
2106	0.00203188
2118	0.00142232
2130	0.000253985
2142	0.000203188
2154	0.000406376
2166	0.00116833
2178	0.00106674
2190	0.00121913
2202	0.00116833
2214	0.00198108
2226	0.00228587
2238	0.00116833
2250	0.00126993
2262	0.00132072
2274	0.00137152
2286	0.00157471
2298	0.00243826
2310	0.00401296
2322	0.00431775
2334	0.00264144
2346	0.00279384
2358	0.00386057
2370	0.00203188
2382	0.00289543
2394	0.00355579
2406	0.00309862
2418	0.00314941
2430	0.00198108
2442	0.00269224
2454	0.00213347
2466	0.00264144
2478	0.00274304
2490	0.00304782
2502	0.00325101
2514	0.00380978
2526	0.00482572
2538	0.00558767
2550	0.00609564
2562	0.00543528
2574	0.00548608
2586	0.00599405
2598	0.00629883
2610	0.00548608
2622	0.00553687
2634	0.00614644
2646	0.00665441
2658	0.00716238
2670	0.00817832
2682	0.00924505
2694	0.00980382
2706	0.0103118
2718	0.010769
2730	0.0117849
2742	0.0129532
2754	0.0141216
2766	0.0159503
2778	0.0194045
2790	0.0250429
2802	0.0373358
2814	0.0611088
2826	0.0827483
2838	0.0826467
2850	0.0780242
2862	0.08158
2874	0.11602
2886	0.153407
2898	0.127348
2910	0.116376
2922	0.127043
2934	0.196127
2946	0.221221
2958	0.158283
2970	0.258811
2982	0.403176
2994	0.21157
3006	0.0677124
3018	0.0508478
3030	0.0791925
3042	0.103169
3054	0.0832055
3066	0.102305
3078	0.10642
3090	0.0684236
3102	0.070557
3114	0.0397233
3126	0.0200648
3138	0.00980382
3150	0.00761955
3162	0.00716238
3174	0.00462253
3186	0.00380978
3198	0.00375898
3210	0.00279384
3222	0.00223507
3234	0.00137152
3246	0.00259065
3258	0.00187949
3270	0.00132072
3282	0.00243826
3294	0.00126993
3306	0.000965143
3318	0.00193029
3330	0.000914346
3342	0.000609564
3354	0.00259065
3366	0.0017779
3378	0.00243826
3390	0.000965143
3402	0.00121913
3414	0.00218427
3426	0.000965143
3438	0.00106674
3450	0.00193029
3462	0.0017779
3474	0.00198108
3486	0.00116833
3498	0.00116833
3510	0.00243826
3522	0.00137152
3534	0.00213347
3546	0.0016763
3558	0.00213347
3570	0.0016255
3582	0.0017779
3594	0.0017779
3606	0.00274304
3618	0.00218427
3630	0.00187949
3642	0.00193029
3654	0.0017779
3666	0.00325101
3678	0.00228587
3690	0.00228587
3702	0.00243826
3714	0.00228587
3726	0.00248905
3738	0.0033526
3750	0.00274304
3762	0.00198108
3774	0.00253985
3786	0.00253985
3798	0.00198108
3810	0.00203188
3822	0.00198108
3834	0.00218427
3846	0.00208268
3858	0.00213347
3870	0.00203188
3882	0.00198108
3894	0.00259065
3906	0.00299702
3918	0.00365738
3930	0.00309862
3942	0.00314941
3954	0.00370818
3966	0.00370818
