Infrared Spectrum: Cyclohexanamine, N,N-diethyl-
Formula: C 10 H 21 N
CAS: 91-65-6
Origin: Sadtler Research Labs Under US-EPA Contract
1/CM	ABSORBANCE
450	0.00493243
462	0.0111665
474	0.00883727
486	0.0104814
498	0.0110295
510	0.00321978
522	0.0123311
534	0.00417887
546	0.0107554
558	0.00205518
570	0.0141122
582	0.00972785
594	0.00870026
606	0.0091798
618	0.00596002
630	0.00712462
642	0.00321978
654	0.00664508
666	0.00363082
678	0.00527496
690	0.0057545
702	0.00465841
714	0.00691911
726	0.00637106
738	0.00883727
750	0.00815221
762	0.0136327
774	0.0130161
786	0.0193872
798	0.0165785
810	0.0169895
822	0.0126736
834	0.00828923
846	0.0144548
858	0.00650807
870	0.00842624
882	0.0160304
894	0.0210313
906	0.011646
918	0.00993337
930	0.0145233
942	0.011783
954	0.0176745
966	0.0161674
978	0.0149343
990	0.0126051
1002	0.0182226
1014	0.0245251
1026	0.0235661
1038	0.0300056
1050	0.0417202
1062	0.0783024
1074	0.0865916
1086	0.0535717
1098	0.0402815
1110	0.0391854
1122	0.033842
1134	0.0307592
1146	0.0193872
1158	0.0203463
1170	0.028567
1182	0.0380893
1194	0.0576821
1206	0.0777543
1218	0.04035
1230	0.0206888
1242	0.0189077
1254	0.0313072
1266	0.0300741
1278	0.0182911
1290	0.0213054
1302	0.028156
1314	0.0250732
1326	0.028019
1338	0.0376783
1350	0.0390484
1362	0.0411721
1374	0.0693966
1386	0.0810426
1398	0.0356231
1410	0.016784
1422	0.011235
1434	0.0163729
1446	0.0445974
1458	0.0631625
1470	0.046173
1482	0.0257583
1494	0.0138382
1506	0.00904279
1518	0.00678209
1530	0.00582301
1542	0.00383634
1554	0.00623405
1566	0.00548048
1578	0.00479542
1590	0.00513795
1602	0.0068506
1614	0.00643956
1626	0.00589152
1638	0.00335679
1650	0.00315128
1662	0.00493243
1674	0.00356231
1686	0.0023292
1698	0.00164414
1710	0.00376783
1722	0.00335679
1734	0.0023292
1746	0.00294576
1758	0.00294576
1770	0.00356231
1782	0.00301426
1794	0.00328829
1806	0.00315128
1818	0.00369932
1830	0.00287725
1842	0.00294576
1854	0.00301426
1866	0.00294576
1878	0.00301426
1890	0.00219219
1902	0.00335679
1914	0.00219219
1926	0.00280875
1938	0.00280875
1950	0.00267173
1962	0.00294576
1974	0.00294576
1986	0.00335679
1998	0.00253472
2010	0.00287725
2022	0.0022607
2034	0.00321978
2046	0.00260323
2058	0.00267173
2070	0.00356231
2082	0.00246622
2094	0.00335679
2106	0.00260323
2118	0.00335679
2130	0.00280875
2142	0.00376783
2154	0.00301426
2166	0.0034253
2178	0.00356231
2190	0.00308277
2202	0.00390484
2214	0.00301426
2226	0.00328829
2238	0.00328829
2250	0.00287725
2262	0.00274024
2274	0.00253472
2286	0.00301426
2298	0.00157564
2310	0.00315128
2322	0.00246622
2334	0.00178116
2346	0.00267173
2358	0.0045214
2370	0.00431588
2382	0.00520646
2394	0.00623405
2406	0.00417887
2418	0.00534347
2430	0.00465841
2442	0.0045899
2454	0.00438438
2466	0.00438438
2478	0.00513795
2490	0.00486393
2502	0.00493243
2514	0.00438438
2526	0.00582301
2538	0.00527496
2550	0.00548048
2562	0.00657658
2574	0.00753566
2586	0.00924831
2598	0.00959084
2610	0.0101389
2622	0.0100704
2634	0.0126051
2646	0.0128791
2658	0.0152083
2670	0.0180856
2682	0.0156194
2694	0.0167155
2706	0.0178801
2718	0.0205518
2730	0.0206203
2742	0.0217164
2754	0.0239086
2766	0.0274024
2778	0.0324718
2790	0.0443234
2802	0.0711777
2814	0.101937
2826	0.0944698
2838	0.068232
2850	0.085838
2862	0.22333
2874	0.171608
2886	0.106938
2898	0.0978951
2910	0.151604
2922	0.269297
2934	0.612444
2946	0.512425
2958	0.179349
2970	0.220384
2982	0.229838
2994	0.0874822
3006	0.0336364
3018	0.0222644
3030	0.0155509
3042	0.0139067
3054	0.0104129
3066	0.00835773
3078	0.00822072
3090	0.0080152
3102	0.00760417
3114	0.00698761
3126	0.00746715
3138	0.00657658
3150	0.00828923
3162	0.00664508
3174	0.00623405
3186	0.00630255
3198	0.00500094
3210	0.00527496
3222	0.00424737
3234	0.00554899
3246	0.00417887
3258	0.00596002
3270	0.00493243
3282	0.00397335
3294	0.00479542
3306	0.00404185
3318	0.00500094
3330	0.00301426
3342	0.00506944
3354	0.00280875
3366	0.00493243
3378	0.00411036
3390	0.00431588
3402	0.00431588
3414	0.00404185
3426	0.00609703
3438	0.00424737
3450	0.00493243
3462	0.00431588
3474	0.00438438
3486	0.00335679
3498	0.00445289
3510	0.00445289
3522	0.00328829
3534	0.00479542
3546	0.00383634
3558	0.0045214
3570	0.00349381
3582	0.00431588
3594	0.00500094
3606	0.00417887
3618	0.005686
3630	0.00184966
3642	0.00513795
3654	0.00411036
3666	0.00411036
3678	0.00280875
3690	0.00369932
3702	0.00376783
3714	0.00280875
3726	0.0045214
3738	0.0022607
3750	0.00465841
3762	0.00335679
3774	0.00390484
3786	0.00438438
3798	0.00383634
3810	0.00376783
3822	0.00287725
3834	0.00465841
3846	0.00376783
3858	0.00520646
3870	0.00397335
3882	0.00411036
3894	0.00609703
3906	0.00438438
3918	0.00602853
3930	0.00513795
3942	0.00561749
3954	0
3966	0.00034253
