Infrared Spectrum: 6-Methyl-1,2,3,4-tetrahydroquinoline
Formula: C 10 H 13 N
CAS: 91-61-2
Origin: Sadtler Research Labs Under US-EPA Contract
1/CM	ABSORBANCE
450	0.0267691
462	0.0199852
474	0.0116427
486	0.0189767
498	0.0231021
510	0.0292443
522	0.0266774
534	0.0254857
546	0.0234688
558	0.0095342
570	0.0165932
582	0.0313529
594	0.0300694
606	0.0240189
618	0.0241105
630	0.0338281
642	0.0367617
654	0.0277775
666	0.0223687
678	0.0165932
690	0.0123761
702	0.00999258
714	0.00522548
726	0.0033003
738	0.00412538
750	0.00238355
762	0.0007334
774	0.003667
786	0.0422622
798	0.156398
810	0.158231
822	0.0493212
834	0.0122845
846	0.0095342
858	0.014118
870	0.0130179
882	0.0276859
894	0.0240189
906	0.0055005
918	0.000458375
930	0.00375868
942	0.00357533
954	0.00375868
966	0.0003667
978	0.00302528
990	0.0118261
1002	0.018335
1014	0.0154014
1026	0.0040337
1038	0.00284193
1050	0.00577553
1062	0.00935085
1074	0.0236522
1086	0.0436373
1098	0.0412538
1110	0.0139346
1122	0.0150347
1134	0.0499629
1146	0.0722399
1158	0.0577553
1170	0.0279609
1182	0.0619723
1194	0.076732
1206	0.0224604
1218	0.0156764
1230	0.0228271
1242	0.0649059
1254	0.244131
1266	0.241289
1278	0.106251
1290	0.265582
1302	0.417946
1314	0.105793
1326	0.0643559
1338	0.0849827
1350	0.182433
1362	0.159698
1374	0.0398786
1386	0.0236522
1398	0.0209936
1410	0.0297027
1422	0.0377701
1434	0.0669228
1446	0.139713
1458	0.139254
1470	0.168499
1482	0.12532
1494	0.177024
1506	0.69288
1518	0.790972
1530	0.14118
1542	0.0396953
1554	0.0300694
1566	0.0254857
1578	0.0264024
1590	0.0398786
1602	0.0484961
1614	0.0952503
1626	0.130729
1638	0.0343781
1650	0.00614223
1662	0.0126512
1674	0.00458375
1686	0.000641725
1698	0.00055005
1710	0.0103593
1722	0.0099009
1734	0.00522548
1746	0.007334
1758	0.0077007
1770	0.00430873
1782	0.0055005
1794	0.00311695
1806	0.00742568
1818	0.0084341
1830	0.0033003
1842	0.00632558
1854	0.0164098
1866	0.0123761
1878	0.00687563
1890	0.00421705
1902	0.00504213
1914	0.0040337
1926	0.00485878
1938	0.0047671
1950	0.00449207
1962	0.00449207
1974	0.00320863
1986	0.00229188
1998	0.00201685
2010	0.0022002
2022	0.0018335
2034	0.00229188
2046	0.00174183
2058	0.00174183
2070	0.00119178
2082	0.000825075
2094	0.00128345
2106	0.0011001
2118	0.00018335
2130	0.0003667
2142	0.0007334
2154	0.000458375
2166	0.00100843
2178	0.00091675
2190	0.000458375
2202	0.0003667
2214	0
2226	0.000275025
2238	0.00100843
2250	0.0011001
2262	0.00128345
2274	0.0011001
2286	0.00137513
2298	0.0025669
2310	0.0029336
2322	0.0029336
2334	0.00174183
2346	0.00320863
2358	0.00311695
2370	0.0033003
2382	0.00430873
2394	0.00210852
2406	0.00128345
2418	0.00165015
2430	0.00155848
2442	0.00229188
2454	0.00275025
2466	0.00192518
2478	0.00210852
2490	0.00265858
2502	0.0029336
2514	0.00320863
2526	0.00485878
2538	0.00614223
2550	0.00935085
2562	0.00898415
2574	0.00467543
2586	0.00320863
2598	0.00375868
2610	0.00430873
2622	0.00577553
2634	0.00815908
2646	0.0095342
2658	0.011276
2670	0.010726
2682	0.011276
2694	0.0151264
2706	0.0174182
2718	0.0156764
2730	0.017785
2742	0.0264024
2754	0.0285109
2766	0.0341948
2778	0.0359366
2790	0.0419872
2802	0.0616973
2814	0.0935085
2826	0.139621
2838	0.241289
2850	0.287309
2862	0.268149
2874	0.263474
2886	0.207827
2898	0.195084
2910	0.22057
2922	0.350749
2934	0.567468
2946	0.617339
2958	0.582778
2970	0.234688
2982	0.119728
2994	0.13137
3006	0.204344
3018	0.230563
3030	0.155756
3042	0.113127
3054	0.117252
3066	0.0578469
3078	0.0266774
3090	0.0202602
3102	0.0157681
3114	0.0102676
3126	0.0088008
3138	0.00825075
3150	0.00485878
3162	0.00284193
3174	0.0022002
3186	0.00210852
3198	0.00238355
3210	0.0022002
3222	0.00229188
3234	0.0022002
3246	0.00265858
3258	0.00229188
3270	0.00192518
3282	0.00174183
3294	0.00165015
3306	0.00119178
3318	0.0022002
3330	0.0022002
3342	0.0022002
3354	0.0022002
3366	0.0025669
3378	0.00238355
3390	0.0029336
3402	0.0047671
3414	0.00898415
3426	0.0230104
3438	0.0487711
3450	0.0349282
3462	0.0103593
3474	0.00540882
3486	0.003667
3498	0.00412538
3510	0.00531715
3522	0.0033003
3534	0.00247523
3546	0.00174183
3558	0.0014668
3570	0.00229188
3582	0.0014668
3594	0.00128345
3606	0.0014668
3618	0.00119178
3630	0.0011001
3642	0.00155848
3654	0.000825075
3666	0.00192518
3678	0.0003667
3690	0.0014668
3702	0.000458375
3714	0.00174183
3726	0.00210852
3738	0.00210852
3750	0.00192518
3762	0.00275025
3774	0.00265858
3786	0.00229188
3798	0.00137513
3810	0.0025669
3822	0.00192518
3834	0.00229188
3846	0.00174183
3858	0.00229188
3870	0.000825075
3882	0.00238355
3894	0.0022002
3906	0.0025669
3918	0.00165015
3930	0.00339198
3942	0.00275025
3954	0.0022002
3966	0.0018335
