Infrared Spectrum: Quinoline, 2-methyl-
Formula: C 10 H 9 N
CAS: 91-63-4
Origin: Sadtler Research Labs Under US-EPA Contract
1/CM	ABSORBANCE
450	0.0554535
462	0.0785476
474	0.120172
486	0.0304925
498	0.00511666
510	0.0075367
522	0.0075367
534	0.0121693
546	0.00871214
558	0.00248918
570	0.00705269
582	0.000553152
594	0.0017286
606	0.0299394
618	0.0687291
630	0.0351252
642	0.00643039
654	0.00242004
666	0.00421778
678	0.0058081
690	0.0045635
702	0.0103025
714	0.0134139
726	0.0981153
738	0.295867
750	0.251961
762	0.124459
774	0.150042
786	0.180673
798	0.254381
810	0.55737
822	0.455452
834	0.134347
846	0.0214346
858	0.00871214
870	0.0103716
882	0.0171477
894	0.0203975
906	0.0145202
918	0.0117545
930	0.016318
942	0.0323594
954	0.0370612
966	0.0354709
978	0.0257216
990	0.0245461
1002	0.0654102
1014	0.085462
1026	0.0284873
1038	0.0229558
1050	0.0206741
1062	0.0156957
1074	0.0125151
1086	0.0127225
1098	0.0268279
1110	0.101227
1122	0.0918924
1134	0.0598787
1146	0.069144
1158	0.0186689
1170	0.00726012
1182	0.00712183
1194	0.0113396
1206	0.0555226
1218	0.188417
1230	0.125911
1242	0.0395504
1254	0.0410715
1266	0.0306308
1278	0.028349
1290	0.048954
1302	0.139049
1314	0.203145
1326	0.0722555
1338	0.0537249
1350	0.0437682
1362	0.0477785
1374	0.0916849
1386	0.0838717
1398	0.0477094
1410	0.0791007
1422	0.224372
1434	0.202661
1446	0.0983919
1458	0.0717715
1470	0.0529643
1482	0.0975622
1494	0.281762
1506	0.496523
1518	0.261433
1530	0.0892649
1542	0.0947273
1554	0.162281
1566	0.175902
1578	0.128539
1590	0.234398
1602	0.51374
1614	0.428209
1626	0.380015
1638	0.136559
1650	0.0500603
1662	0.0277267
1674	0.0154883
1686	0.0243387
1698	0.0179774
1710	0.0172169
1722	0.0147968
1734	0.0137597
1746	0.0145202
1758	0.0266204
1770	0.0212964
1782	0.0145202
1794	0.0107865
1806	0.0177009
1818	0.02019
1830	0.0207432
1842	0.0246153
1854	0.00878129
1866	0.00242004
1878	0.00435607
1890	0.0145894
1902	0.018254
1914	0.028349
1926	0.0357474
1938	0.0289022
1950	0.0324977
1962	0.0121693
1974	0.00117545
1986	0.00207432
1998	0.00366463
2010	0.00359549
2022	0.00228175
2034	0.0017286
2046	0.00228175
2058	0.00304234
2070	0.0051858
2082	0.00504751
2094	0.00387206
2106	0.00318062
2118	0.0028349
2130	0.00311148
2142	0.00221261
2154	0.00221261
2166	0.00138288
2178	0.000484008
2190	6.9144e-05
2202	0
2214	0.000622296
2226	0.00179774
2238	0.00214346
2250	0.00490922
2262	0.00878129
2274	0.00822814
2286	0.0051858
2298	0.00290405
2310	0.00152117
2322	0.00228175
2334	0.00214346
2346	0.00394121
2358	0.00394121
2370	0.00615382
2382	0.00477094
2394	0.00324977
2406	0.00276576
2418	0.00359549
2430	0.00442522
2442	0.00566981
2454	0.00643039
2466	0.00566981
2478	0.0051858
2490	0.00504751
2502	0.00311148
2514	0.00255833
2526	0.00373378
2538	0.00373378
2550	0.00290405
2562	0.00311148
2574	0.00338806
2586	0.00608467
2598	0.00767498
2610	0.00525494
2622	0.00421778
2634	0.00352634
2646	0.00297319
2658	0.00228175
2670	0.00228175
2682	0.00262747
2694	0.00214346
2706	0.00159031
2718	0.00318062
2730	0.00726012
2742	0.00615382
2754	0.00290405
2766	0.0023509
2778	0.00290405
2790	0.00387206
2802	0.00615382
2814	0.00836642
2826	0.0127916
2838	0.0208815
2850	0.0367846
2862	0.0558684
2874	0.0602936
2886	0.0562141
2898	0.0584958
2910	0.070596
2922	0.136629
2934	0.248504
2946	0.173413
2958	0.109939
2970	0.0842174
2982	0.0562141
2994	0.0526186
3006	0.092169
3018	0.132687
3030	0.148521
3042	0.259774
3054	0.485875
3066	0.542642
3078	0.356576
3090	0.156749
3102	0.083526
3114	0.0505443
3126	0.0224027
3138	0.0097493
3150	0.00560066
3162	0.0051858
3174	0.00608467
3186	0.00532409
3198	0.00490922
3210	0.00366463
3222	0.00269662
3234	0.00311148
3246	0.00228175
3258	0.000760584
3270	0.00159031
3282	0.0011063
3294	0.00131374
3306	0.00131374
3318	0.00145202
3330	0.00152117
3342	0.000622296
3354	0.000968016
3366	0.00131374
3378	0.00103716
3390	0.00145202
3402	0.00165946
3414	0.0028349
3426	0.00248918
3438	0.00269662
3450	0.00214346
3462	0.00131374
3474	0.00207432
3486	0.00165946
3498	0.00165946
3510	0.00165946
3522	0.00228175
3534	0.0023509
3546	0.00262747
3558	0.00103716
3570	0.00228175
3582	0.00290405
3594	0.00269662
3606	0.00103716
3618	0.000829728
3630	0.00214346
3642	0.00124459
3654	0.00152117
3666	0.00124459
3678	0.00159031
3690	0.00221261
3702	0.0028349
3714	0.00255833
3726	0.00200518
3738	0.00269662
3750	0.00297319
3762	0.00262747
3774	0.00186689
3786	0.0023509
3798	0.00069144
3810	0.00179774
3822	0.00138288
3834	0
3846	0.00117545
3858	0.000760584
3870	0.00117545
3882	0
3894	0.00034572
3906	0.00186689
3918	0.00269662
3930	0.00152117
3942	0.00470179
3954	0.00532409
3966	0.00221261
