Infrared Spectrum: Benzylamine, p-butoxy-.alpha.-methyl-
Formula: C 12 H 19 N O
CAS: 91553-11-6
Origin: Sadtler Research Labs Under US-EPA Contract
1/CM	ABSORBANCE
450	0.00423487
462	0.00743264
474	0.0213472
486	0.0312862
498	0.0413116
510	0.0382867
522	0.0310269
534	0.0319776
546	0.037336
558	0.0416573
570	0.0337061
582	0.02394
594	0.0183223
606	0.0151246
618	0.0149517
630	0.0170259
642	0.0173716
654	0.0120996
666	0.0101118
678	0.0124453
690	0.0201373
702	0.0243721
714	0.0263599
726	0.0348297
738	0.0473614
750	0.0407066
762	0.0238536
774	0.02273
786	0.0234214
798	0.0316319
810	0.0425216
822	0.0897102
834	0.190829
846	0.126096
858	0.0599796
870	0.0563498
882	0.0623996
894	0.0942043
906	0.126355
918	0.0747585
930	0.0619674
942	0.0369903
954	0.0586833
966	0.115638
978	0.104662
990	0.102674
1002	0.0948957
1014	0.137158
1026	0.139492
1038	0.113045
1050	0.0804626
1062	0.081759
1074	0.0929944
1086	0.0464108
1098	0.0415709
1110	0.0579918
1122	0.067153
1134	0.0424352
1146	0.0475343
1158	0.0728571
1170	0.296355
1182	0.132059
1194	0.0587697
1206	0.120132
1218	0.268439
1230	0.440686
1242	0.818973
1254	0.603945
1266	0.232313
1278	0.212003
1290	0.208114
1302	0.15427
1314	0.10665
1326	0.0704372
1338	0.0464108
1350	0.0400152
1362	0.0383731
1374	0.0483121
1386	0.0962786
1398	0.0749313
1410	0.0640417
1422	0.0486578
1434	0.0464108
1446	0.0515963
1458	0.0676716
1470	0.132232
1482	0.126268
1494	0.114774
1506	0.618378
1518	0.383386
1530	0.0586833
1542	0.0222979
1554	0.0260142
1566	0.0413116
1578	0.0681901
1590	0.0896238
1602	0.254179
1614	0.256167
1626	0.123589
1638	0.0842654
1650	0.0174581
1662	0.0127046
1674	0.00207422
1686	0.0043213
1698	0.00483986
1710	0.0112354
1722	0.0140874
1734	0.00449415
1746	0.00950686
1758	0.0127046
1770	0.0086426
1782	0.0130503
1794	0.00777834
1806	0.0222115
1818	0.0205694
1830	0.0063091
1842	0.00751906
1854	0.00786477
1866	0.00950686
1878	0.0144331
1890	0.010544
1902	0.00777834
1914	0.00579054
1926	0.00587697
1938	0.00691408
1950	0.00812404
1962	0.00924758
1974	0.00967971
1986	0.00881545
1998	0.00838332
2010	0.00924758
2022	0.00916116
2034	0.0089883
2046	0.00993899
2058	0.00916116
2070	0.00846975
2082	0.00795119
2094	0.00596339
2106	0.00509913
2118	0.00483986
2130	0.00406202
2142	0.00328419
2154	0.00285206
2166	0.00267921
2178	0.00293848
2190	0.00311134
2202	0.00319776
2214	0.00423487
2226	0.00440773
2238	0.00475343
2250	0.00553126
2262	0.00596339
2274	0.00682765
2286	0.0114947
2298	0.0163345
2310	0.0215201
2322	0.0199644
2334	0.0159888
2346	0.0212608
2358	0.0178038
2370	0.0190137
2382	0.0152974
2394	0.00613625
2406	0.00700051
2418	0.00760549
2430	0.00725978
2442	0.00769191
2454	0.00872903
2466	0.00924758
2478	0.0101983
2490	0.0103711
2502	0.00993899
2514	0.0107168
2526	0.0121861
2538	0.0122725
2550	0.0115811
2562	0.00985256
2574	0.00933401
2586	0.0089883
2598	0.00907473
2610	0.00803762
2622	0.00821047
2634	0.00751906
2646	0.00812404
2658	0.0082969
2670	0.00907473
2682	0.0120996
2694	0.0107168
2706	0.015211
2718	0.0128775
2730	0.0212608
2742	0.018063
2754	0.0273106
2766	0.0179766
2778	0.0264464
2790	0.0194459
2802	0.0268785
2814	0.0252364
2826	0.032064
2838	0.039756
2850	0.0646466
2862	0.103798
2874	0.155221
2886	0.198521
2898	0.165851
2910	0.1891
2922	0.227819
2934	0.274662
2946	0.334641
2958	0.309405
2970	0.360569
2982	0.222979
2994	0.109675
3006	0.0869446
3018	0.113564
3030	0.0880681
3042	0.106736
3054	0.0755363
3066	0.0623996
3078	0.0689679
3090	0.0966243
3102	0.0928215
3114	0.0372496
3126	0.0276563
3138	0.0217794
3150	0.018668
3162	0.0169395
3174	0.0173716
3186	0.015816
3198	0.0155567
3210	0.0152974
3222	0.0134825
3234	0.0128775
3246	0.0117539
3258	0.0107168
3270	0.00933401
3282	0.00881545
3294	0.00812404
3306	0.00777834
3318	0.00777834
3330	0.00916116
3342	0.00708693
3354	0.00674123
3366	0.00682765
3378	0.00691408
3390	0.00674123
3402	0.00604982
3414	0.00717336
3426	0.0063091
3438	0.00700051
3450	0.00656838
3462	0.00656838
3474	0.00648195
3486	0.00648195
3498	0.00604982
3510	0.0066548
3522	0.0066548
3534	0.00691408
3546	0.00967971
3558	0.00881545
3570	0.00942043
3582	0.00717336
3594	0.0107168
3606	0.00553126
3618	0.0086426
3630	0.0112354
3642	0.00821047
3654	0.00838332
3666	0.00501271
3678	0.0144331
3690	0.00648195
3702	0.00674123
3714	0.0101983
3726	0.0108897
3738	0.00751906
3750	0.00872903
3762	0.00821047
3774	0.00622267
3786	0.00604982
3798	0.00648195
3810	0.00682765
3822	0.0132232
3834	0.00907473
3846	0.0110625
3858	0.012791
3870	0.0120996
3882	0.0137417
3894	0.00881545
3906	0.0125318
3918	0.0120996
3930	0.00924758
3942	0.0121861
3954	0.00907473
3966	0.0109761
