Infrared Spectrum: Methanesulfonamide, N,N-dimethyl-
Formula: C 3 H 9 N O 2 S
CAS: 918-05-8
Origin: Sadtler Research Labs Under US-EPA Contract
1/CM	ABSORBANCE
450	0
462	0.0180421
474	0.0644548
486	0.133093
498	0.186827
510	0.209838
522	0.272593
534	0.14656
546	0.0532112
558	0.0235332
570	0.0189573
582	0.0185651
594	0.0197417
606	0.0189573
618	0.0247099
630	0.0286321
642	0.0725607
654	0.163294
666	0.188789
678	0.0983165
690	0.0223565
702	0.0223565
714	0.0198725
726	0.0286321
738	0.0662852
750	0.203431
762	0.443862
774	0.530935
786	0.31626
798	0.0898184
810	0.0351691
822	0.0258865
834	0.0234025
846	0.0223565
858	0.0232717
870	0.0271939
882	0.0302009
894	0.0364765
906	0.0495505
918	0.0824969
930	0.172708
942	0.37274
954	0.664028
966	0.718416
978	0.43994
990	0.163294
1002	0.0874651
1014	0.0666774
1026	0.0594867
1038	0.0628859
1050	0.0753062
1062	0.081974
1074	0.065893
1086	0.0468049
1098	0.0414446
1110	0.0414446
1122	0.0516423
1134	0.112175
1146	0.382545
1158	0.812549
1170	0.880403
1182	0.505833
1194	0.173361
1206	0.149305
1218	0.129433
1230	0.102108
1242	0.105376
1254	0.152312
1266	0.193364
1278	0.174015
1290	0.126687
1302	0.115051
1314	0.159111
1326	0.270763
1338	0.374178
1350	0.810588
1362	1.28857
1374	1.05259
1386	0.436279
1398	0.138323
1410	0.115051
1422	0.104069
1434	0.091518
1446	0.0951787
1458	0.11309
1470	0.121327
1482	0.103808
1494	0.0741296
1506	0.0508579
1518	0.0409216
1530	0.0363457
1542	0.0342539
1554	0.0334694
1566	0.0312469
1578	0.0317698
1590	0.0324235
1602	0.0347768
1614	0.0345154
1626	0.0320313
1638	0.0285013
1650	0.0236639
1662	0.0202647
1674	0.0185651
1686	0.0181729
1698	0.0173884
1710	0.0175192
1722	0.0173884
1734	0.0169962
1746	0.0149044
1758	0.0146429
1770	0.0150351
1782	0.0145121
1794	0.0149044
1806	0.0146429
1818	0.0151658
1830	0.0156888
1842	0.016081
1854	0.0159503
1866	0.0154273
1878	0.0152966
1890	0.0156888
1902	0.016604
1914	0.0184343
1926	0.019088
1938	0.0179114
1950	0.0164732
1962	0.016081
1974	0.016604
1986	0.0163425
1998	0.0155581
2010	0.0154273
2022	0.0154273
2034	0.0156888
2046	0.0156888
2058	0.0156888
2070	0.0159503
2082	0.0169962
2094	0.0179114
2106	0.0179114
2118	0.0172577
2130	0.0168655
2142	0.016081
2154	0.0159503
2166	0.0152966
2178	0.0154273
2190	0.0150351
2202	0.0150351
2214	0.0152966
2226	0.0149044
2238	0.0155581
2250	0.0158195
2262	0.0167347
2274	0.0179114
2286	0.0188266
2298	0.0193495
2310	0.0213106
2322	0.0220951
2334	0.0211799
2346	0.0217028
2358	0.0198725
2370	0.0209184
2382	0.0193495
2394	0.0169962
2406	0.0164732
2418	0.0162118
2430	0.016081
2442	0.0158195
2454	0.0158195
2466	0.016081
2478	0.0167347
2490	0.0179114
2502	0.0207877
2514	0.0223565
2526	0.0220951
2538	0.0193495
2550	0.0173884
2562	0.016604
2574	0.016604
2586	0.0169962
2598	0.0168655
2610	0.0171269
2622	0.0173884
2634	0.0175192
2646	0.0168655
2658	0.0171269
2670	0.0169962
2682	0.0173884
2694	0.0177806
2706	0.0185651
2718	0.019611
2730	0.0214414
2742	0.022618
2754	0.0236639
2766	0.0262787
2778	0.0311161
2790	0.0406601
2802	0.0664159
2814	0.101846
2826	0.115836
2838	0.107861
2850	0.12015
2862	0.141984
2874	0.152835
2886	0.161987
2898	0.178591
2910	0.190488
2922	0.201209
2934	0.226703
2946	0.258473
2958	0.251805
2970	0.195979
2982	0.122111
2994	0.0781825
3006	0.0717763
3018	0.0758292
3030	0.0673311
3042	0.0490275
3054	0.0366072
3066	0.0324235
3078	0.0298087
3090	0.0278476
3102	0.0264095
3114	0.0247099
3126	0.0230102
3138	0.0211799
3150	0.020134
3162	0.0194803
3174	0.0184343
3186	0.0175192
3198	0.0168655
3210	0.0168655
3222	0.0162118
3234	0.016081
3246	0.0164732
3258	0.0158195
3270	0.0156888
3282	0.0162118
3294	0.016081
3306	0.0168655
3318	0.0167347
3330	0.0158195
3342	0.0171269
3354	0.0169962
3366	0.0164732
3378	0.0168655
3390	0.016604
3402	0.0168655
3414	0.016604
3426	0.0163425
3438	0.0162118
3450	0.0167347
3462	0.016604
3474	0.0162118
3486	0.0158195
3498	0.0159503
3510	0.0158195
3522	0.016081
3534	0.0163425
3546	0.016081
3558	0.0156888
3570	0.0158195
3582	0.0159503
3594	0.0150351
3606	0.0162118
3618	0.0158195
3630	0.016604
3642	0.0159503
3654	0.0154273
3666	0.0162118
3678	0.016081
3690	0.0158195
3702	0.0164732
3714	0.0164732
3726	0.0167347
3738	0.0154273
3750	0.0172577
3762	0.0162118
3774	0.016081
3786	0.016604
3798	0.0150351
3810	0.0169962
3822	0.0169962
3834	0.0163425
3846	0.0152966
3858	0.0168655
3870	0.0158195
3882	0.0175192
3894	0.0164732
3906	0.0180421
3918	0.0159503
3930	0.0149044
3942	0.0146429
3954	0.0175192
3966	0.0171269
