Infrared Spectrum: Pilocarpine
Formula: C 11 H 16 N 2 O 2
CAS: 92-13-7
Origin: Sadtler Research Labs Under US-EPA Contract
1/CM	ABSORBANCE
450	0.0129283
462	0.0207184
474	0.0200554
486	0.026851
498	0.0341439
510	0.0198896
522	0.0109393
534	0.0119338
546	0.0265195
558	0.0353041
570	0.0430942
582	0.0697795
594	0.0404423
606	0.0329837
618	0.057017
630	0.0803873
642	0.0578457
654	0.0200554
666	0.00298345
678	0.00165747
690	0.00546965
702	0.00878459
714	0.0213814
726	0.0485639
738	0.128122
750	0.158288
762	0.107404
774	0.156134
786	0.183648
798	0.0994482
810	0.142211
822	0.12862
834	0.082542
846	0.0424312
858	0.0457462
870	0.0878459
882	0.103095
894	0.104918
906	0.0578457
918	0.042597
930	0.053039
942	0.0810503
954	0.0871829
966	0.0885089
978	0.0788956
990	0.0725972
1002	0.106741
1014	0.204532
1026	0.249283
1038	0.22525
1050	0.0994482
1062	0.0611606
1074	0.0558567
1086	0.0727629
1098	0.190941
1110	0.503042
1122	0.602656
1134	0.240665
1146	0.130277
1158	0.0833707
1170	0.0583429
1182	0.0611606
1194	0.0699452
1206	0.102929
1218	0.206189
1230	0.298842
1242	0.232377
1254	0.280775
1266	0.56702
1278	1.48012
1290	1.42924
1302	0.681054
1314	0.375583
1326	0.246797
1338	0.120001
1350	0.0546965
1362	0.0407738
1374	0.0775696
1386	0.184642
1398	0.132763
1410	0.0518788
1422	0.119835
1434	0.31608
1446	0.377903
1458	0.218455
1470	0.165084
1482	0.121161
1494	0.169559
1506	0.543484
1518	0.807685
1530	0.330665
1542	0.104255
1554	0.0679563
1566	0.0984537
1578	0.203703
1590	0.30282
1602	0.439395
1614	0.579617
1626	0.289394
1638	0.0585087
1650	0.0290057
1662	0.028177
1674	0.0381218
1686	0.0648071
1698	0.195416
1710	0.852934
1722	1.18078
1734	0.466081
1746	0.115194
1758	0.041271
1770	0.0283427
1782	0.0223758
1794	0.0169062
1806	0.0145857
1818	0.012431
1830	0.0081216
1842	0.00546965
1854	0.00712712
1866	0.00828735
1878	0.0116023
1890	0.0134255
1902	0.0107736
1914	0.00613264
1926	0.0028177
1938	0.00232046
1950	0.00165747
1962	0.00215471
1974	0.00265195
1986	0.00464092
1998	0.00646413
2010	0.00911608
2022	0.015083
2034	0.0198896
2046	0.0212156
2058	0.0185637
2070	0.0132598
2082	0.00762436
2094	0.00629839
2106	0.00265195
2118	0.000828735
2130	0.000165747
2142	0.000331494
2154	0.000497241
2166	0.000497241
2178	0.000165747
2190	0.00116023
2202	0.00215471
2214	0.00414368
2226	0.00596689
2238	0.00745862
2250	0.00977907
2262	0.0112708
2274	0.011768
2286	0.00977907
2298	0.0084531
2310	0.00712712
2322	0.00513816
2334	0.00348069
2346	0.00696137
2358	0.00729287
2370	0.00878459
2382	0.0106078
2394	0.00928183
2406	0.00828735
2418	0.00729287
2430	0.00662988
2442	0.00546965
2454	0.00546965
2466	0.0053039
2478	0.00513816
2490	0.00613264
2502	0.00629839
2514	0.00696137
2526	0.00795586
2538	0.0112708
2550	0.015746
2562	0.0188952
2574	0.0203869
2586	0.0240333
2598	0.025525
2610	0.0243648
2622	0.0177349
2634	0.0167404
2646	0.0179007
2658	0.0170719
2670	0.0162432
2682	0.0195581
2694	0.0338124
2706	0.0860227
2718	0.183813
2730	0.20188
2742	0.106244
2754	0.0485639
2766	0.0474036
2778	0.0815475
2790	0.112376
2802	0.149172
2814	0.212819
2826	0.174034
2838	0.0994482
2850	0.117515
2862	0.0918238
2874	0.0485639
2886	0.0447517
2898	0.0512158
2910	0.0686193
2922	0.081216
2934	0.0846967
2946	0.133924
2958	0.145526
2970	0.138564
2982	0.0946415
2994	0.068122
3006	0.0752491
3018	0.120995
3030	0.0810503
3042	0.0462434
3054	0.0396135
3066	0.0386191
3078	0.0505528
3090	0.041934
3102	0.0256908
3114	0.0162432
3126	0.0114365
3138	0.00944758
3150	0.00895034
3162	0.00779011
3174	0.00712712
3186	0.00629839
3198	0.0053039
3210	0.00513816
3222	0.00464092
3234	0.00464092
3246	0.00381218
3258	0.00298345
3270	0.00298345
3282	0.00265195
3294	0.00248621
3306	0.00248621
3318	0.0028177
3330	0.00348069
3342	0.0028177
3354	0.00198896
3366	0.00265195
3378	0.00348069
3390	0.00414368
3402	0.0119338
3414	0.0223758
3426	0.0152487
3438	0.00662988
3450	0.0028177
3462	0.00248621
3474	0.00265195
3486	0.00215471
3498	0.00314919
3510	0.00331494
3522	0.00232046
3534	0.00265195
3546	0.00331494
3558	0.00298345
3570	0.00381218
3582	0.00662988
3594	0.00729287
3606	0.00430942
3618	0.00464092
3630	0.0053039
3642	0.00480666
3654	0.00546965
3666	0.00497241
3678	0.00613264
3690	0.0053039
3702	0.00381218
3714	0.00447517
3726	0.00513816
3738	0.00464092
3750	0.00464092
3762	0.00596689
3774	0.0053039
3786	0.00447517
3798	0.00679563
3810	0.00480666
3822	0.00662988
3834	0.00613264
3846	0.0053039
3858	0.00513816
3870	0.00696137
3882	0.00679563
3894	0.00679563
3906	0.0053039
3918	0.00546965
3930	0.00596689
3942	0.00331494
3954	0.00513816
3966	0.00712712
