Infrared Spectrum: 10H-Phenothiazine, 2-(trifluoromethyl)-
Formula: C 13 H 8 F 3 N S
CAS: 92-30-8
Origin: Sadtler Research Labs Under US-EPA Contract
1/CM	ABSORBANCE
450	0.0071587
462	0.0315825
474	0.046321
486	0.0292664
498	0.0267398
510	0.0315825
522	0.0410572
534	0.0227394
546	0.0124224
558	0.008422
570	0.00442155
582	0.0071587
594	0.0029477
606	0.0021055
618	0.0025266
630	0.00357935
642	0.0244238
654	0.0454788
666	0.010738
678	0.0216866
690	0.0637966
702	0.0309508
714	0.0513742
726	0.0960108
738	0.265504
750	0.16086
762	0.050532
774	0.0195811
786	0.0096853
798	0.0193706
810	0.0979057
822	0.06127
834	0.0178967
846	0.0254766
858	0.0808512
870	0.096853
882	0.0176862
894	0.0145279
906	0.0202128
918	0.050532
930	0.26403
942	0.0446366
954	0.0193706
966	0.0225288
978	0.0206339
990	0.0176862
1002	0.0193706
1014	0.0244238
1026	0.0517953
1038	0.0751663
1050	0.0448472
1062	0.0703237
1074	0.200233
1086	0.316878
1098	0.365094
1110	0.173283
1122	0.262135
1134	0.514163
1146	1.08054
1158	0.349513
1170	0.552273
1182	0.425522
1194	0.0865361
1206	0.0614806
1218	0.123593
1230	0.447419
1242	0.0917998
1254	0.0979057
1266	0.073903
1278	0.199812
1290	0.161913
1302	0.162545
1314	0.231394
1326	1.04917
1338	1.08138
1350	0.0793773
1362	0.0450577
1374	0.0859044
1386	0.120856
1398	0.0524269
1410	0.0553746
1422	0.152438
1434	0.537745
1446	0.202549
1458	0.605542
1470	0.898417
1482	0.238343
1494	0.11096
1506	0.136647
1518	0.116855
1530	0.0545324
1542	0.0526375
1554	0.035583
1566	0.0951686
1578	0.109486
1590	0.0461104
1602	0.0509531
1614	0.0499003
1626	0.0256871
1638	0.0181073
1650	0.0341091
1662	0.0193706
1674	0.0216866
1686	0.025266
1698	0.0288453
1710	0.0132646
1722	0.0166335
1734	0.0284242
1746	0.0218972
1758	0.0195811
1770	0.0155807
1782	0.00779035
1794	0.0122119
1806	0.0071587
1818	0.00315825
1830	0.00947475
1842	0.0111591
1854	0.0033688
1866	0.00989585
1878	0.0166335
1890	0.0096853
1902	0.00315825
1914	0.00905365
1926	0.0088431
1938	0.0016844
1950	0.00063165
1962	0.00021055
1974	0.00105275
1986	0.00147385
1998	0.00189495
2010	0.0008422
2022	0.00105275
2034	0
2046	0.0004211
2058	0.0004211
2070	0.0012633
2082	0.00273715
2094	0.00442155
2106	0.00315825
2118	0.00189495
2130	0.00189495
2142	0.00315825
2154	0.00484265
2166	0.0037899
2178	0.00189495
2190	0.00147385
2202	0.00189495
2214	0.00231605
2226	0.00231605
2238	0.00273715
2250	0.00231605
2262	0.00315825
2274	0.00442155
2286	0.00526375
2298	0.00484265
2310	0.0058954
2322	0.00484265
2334	0.00021055
2346	0
2358	0.0025266
2370	0.00021055
2382	0.0021055
2394	0.0021055
2406	0.0021055
2418	0.0016844
2430	0.0016844
2442	0.00189495
2454	0.0029477
2466	0.00273715
2478	0.0033688
2490	0.0033688
2502	0.00315825
2514	0.0054743
2526	0.0130541
2538	0.0136857
2550	0.0063165
2562	0.0029477
2574	0.00147385
2586	0.0021055
2598	0.00231605
2610	0.00357935
2622	0.0016844
2634	0.00021055
2646	0.0008422
2658	0.0029477
2670	0.0012633
2682	0.0012633
2694	0.00231605
2706	0.00231605
2718	0.00147385
2730	0.00105275
2742	0.00189495
2754	0.00189495
2766	0.0021055
2778	0.00189495
2790	0.00105275
2802	0.00189495
2814	0.00273715
2826	0.00357935
2838	0.00357935
2850	0.0029477
2862	0.00315825
2874	0.0046321
2886	0.00568485
2898	0.00568485
2910	0.0050532
2922	0.00610595
2934	0.0071587
2946	0.008422
2958	0.00905365
2970	0.00779035
2982	0.0067376
2994	0.00694815
3006	0.012633
3018	0.0269504
3030	0.0301087
3042	0.0280032
3054	0.0364251
3066	0.0511636
3078	0.0671655
3090	0.0425311
3102	0.0195811
3114	0.0092642
3126	0.00357935
3138	0.0025266
3150	0.0029477
3162	0.00315825
3174	0.00315825
3186	0.00315825
3198	0.00273715
3210	0.0029477
3222	0.0025266
3234	0.0016844
3246	0.0021055
3258	0.00189495
3270	0.00231605
3282	0.0025266
3294	0.0029477
3306	0.0037899
3318	0.00484265
3330	0.00568485
3342	0.00694815
3354	0.0080009
3366	0.010317
3378	0.0109486
3390	0.0141068
3402	0.0155807
3414	0.0141068
3426	0.0206339
3438	0.0568485
3450	0.0204233
3462	0.00357935
3474	0.0058954
3486	0.00357935
3498	0.00147385
3510	0.0004211
3522	0.0004211
3534	0.00021055
3546	0.0008422
3558	0.00021055
3570	0.0016844
3582	0.0016844
3594	0.0025266
3606	0.00105275
3618	0.0016844
3630	0
3642	0.00021055
3654	0.00105275
3666	0.0021055
3678	0.0008422
3690	0.00147385
3702	0.00147385
3714	0.00105275
3726	0.00105275
3738	0.0012633
3750	0
3762	0.00231605
3774	0.0021055
3786	0.0008422
3798	0.0016844
3810	0.00189495
3822	0.00189495
3834	0.00063165
3846	0.0016844
3858	0.00063165
3870	0.00189495
3882	0.00189495
3894	0.00273715
3906	0.0025266
3918	0.0016844
3930	0.00105275
3942	0.00442155
3954	0.0033688
3966	0.0025266
