Infrared Spectrum: Biphenyl
Formula: C 12 H 10
CAS: 92-52-4
Origin: Sadtler Research Labs Under US-EPA Contract
1/CM	ABSORBANCE
450	0
462	0.00290357
474	0.044549
486	0.0666161
498	0.0521812
510	0.0399033
522	0.0463741
534	0.0420602
546	0.0389078
558	0.0252195
570	0.0205738
582	0.0064708
594	0.00995508
606	0.11606
618	0.0481162
630	0.0212375
642	0.00547529
654	0.0334325
666	0.0799725
678	0.17662
690	0.535915
702	0.705981
714	0.342123
726	0.434041
738	0.82959
750	0.383934
762	0.127757
774	0.103201
786	0.0657865
798	0.0131075
810	0.0209886
822	0.0134394
834	0.0147667
846	0.0150156
858	0.0366679
870	0.036419
882	0.0131905
894	0.0373315
906	0.0348428
918	0.0268787
930	0.016177
942	0.014103
954	0.0111995
966	0.0197442
978	0.016177
990	0.0320222
1002	0.0897616
1014	0.125683
1026	0.0231456
1038	0.0410647
1050	0.0456274
1062	0.0594816
1074	0.0719255
1086	0.0354235
1098	0.0180021
1110	0.0177532
1122	0.0133564
1134	0.0087107
1146	0.00696856
1158	0.00904253
1170	0.0183339
1182	0.0251366
1194	0.0104528
1206	0.00962324
1218	0.0138542
1230	0.0166748
1242	0.0146837
1254	0.0126098
1266	0.0122779
1278	0.0134394
1290	0.0136053
1302	0.0125268
1314	0.0155133
1326	0.0200761
1338	0.0131075
1350	0.00738335
1362	0.00987212
1374	0.0165088
1386	0.0180851
1398	0.0131905
1410	0.0213205
1422	0.0477844
1434	0.0781474
1446	0.0591498
1458	0.0452956
1470	0.114152
1482	0.428234
1494	0.182178
1506	0.0176703
1518	0.0252195
1530	0.0245559
1542	0.0175043
1554	0.0200761
1566	0.0380782
1578	0.0592327
1590	0.153972
1602	0.167079
1614	0.0515175
1626	0.0306948
1638	0.0128586
1650	0.0204079
1662	0.0238092
1674	0.026215
1686	0.0237263
1698	0.0142689
1710	0.0150156
1722	0.0206568
1734	0.026215
1746	0.0322711
1758	0.0292016
1770	0.0174214
1782	0.0243899
1794	0.0537574
1806	0.0403181
1818	0.0246388
1830	0.0147667
1842	0.0107847
1854	0.0186658
1866	0.0332666
1878	0.0452127
1890	0.0398203
1902	0.0231456
1914	0.0151815
1926	0.0273765
1938	0.0460422
1950	0.0569099
1962	0.0396544
1974	0.0105358
1986	0.00854478
1998	0.00771519
2010	0.00763223
2022	0.0064708
2034	0.00713447
2046	0.00771519
2058	0.00671968
2070	0.00713447
2082	0.00589009
2094	0.00630488
2106	0.00539233
2118	0.00481162
2130	0.00580713
2142	0.00630488
2154	0.00572417
2166	0.00696856
2178	0.00754927
2190	0.00671968
2202	0.00730039
2214	0.00680264
2226	0.0068856
2238	0.00696856
2250	0.00696856
2262	0.00821294
2274	0.00771519
2286	0.0102869
2298	0.0127757
2310	0.0233115
2322	0.0286209
2334	0.0279572
2346	0.0311926
2358	0.0328518
2370	0.0272935
2382	0.0151815
2394	0.00663672
2406	0.00754927
2418	0.00738335
2430	0.00746631
2442	0.0064708
2454	0.00555825
2466	0.00655376
2478	0.00589009
2490	0.00671968
2502	0.00680264
2514	0.00630488
2526	0.00555825
2538	0.00671968
2550	0.00721743
2562	0.0050605
2574	0.00622193
2586	0.00771519
2598	0.0087107
2610	0.00721743
2622	0.0087107
2634	0.00763223
2646	0.0064708
2658	0.00381611
2670	0.0050605
2682	0.00439683
2694	0.00431387
2706	0.00423091
2718	0.00481162
2730	0.00389907
2742	0.00447979
2754	0.00680264
2766	0.00671968
2778	0.00439683
2790	0.00439683
2802	0.00547529
2814	0.00522642
2826	0.00788111
2838	0.00837886
2850	0.00879365
2862	0.0107017
2874	0.0165088
2886	0.0183339
2898	0.0152645
2910	0.0119461
2922	0.0146008
2934	0.0169236
2946	0.0169236
2958	0.0158452
2970	0.0148497
2982	0.0204079
2994	0.0228967
3006	0.0467059
3018	0.108842
3030	0.313917
3042	0.419109
3054	0.273184
3066	0.569928
3078	0.591415
3090	0.303962
3102	0.189644
3114	0.103367
3126	0.0428898
3138	0.022316
3150	0.0193294
3162	0.0178362
3174	0.00912549
3186	0.00779815
3198	0.00589009
3210	0.00522642
3222	0.00398203
3234	0.00232285
3246	0.00522642
3258	0.00381611
3270	0.00638784
3282	0.00257173
3294	0.00456274
3306	0.00622193
3318	0.00539233
3330	0.0046457
3342	0.00373316
3354	0.00555825
3366	0.00655376
3378	0.00738335
3390	0.00572417
3402	0.00456274
3414	0.00240581
3426	0.00705152
3438	0.00331836
3450	0.00671968
3462	0.00754927
3474	0.0050605
3486	0.00439683
3498	0.00389907
3510	0.00381611
3522	0.00414795
3534	0.00821294
3546	0.00547529
3558	0.00223989
3570	0.00821294
3582	0.00613897
3594	0.00945733
3606	0.00655376
3618	0.00530938
3630	0.00738335
3642	0.00788111
3654	0.0104528
3666	0.0087107
3678	0.00547529
3690	0.00920845
3702	0.00779815
3714	0.00605601
3726	0.00846182
3738	0.00539233
3750	0.00331836
3762	0.00796406
3774	0.00356724
3786	0.00788111
3798	0.00630488
3810	0.00481162
3822	0.00539233
3834	0.00489458
3846	0.00406499
3858	0.0064708
3870	0.00589009
3882	0.00912549
3894	0.00489458
3906	0.00348428
3918	0.00456274
3930	0.00207398
3942	0.0050605
3954	0.0018251
3966	0.00207398
