Infrared Spectrum: 1,1'-Bicyclohexyl
Formula: C 12 H 22
CAS: 92-51-3
Origin: Sadtler Research Labs Under US-EPA Contract
1/CM	ABSORBANCE
450	0.0436773
462	0.0196282
474	0.00159148
486	0.00459761
498	0.0235185
510	0.0152075
522	0.0097257
534	0.0120245
546	0.0097257
558	0.028293
570	0.0132623
582	0.0127318
594	0.0123782
606	0.014677
618	0.0162685
630	0.00990254
642	0.0150306
654	0.013616
666	0.0127318
678	0.0139696
690	0.0130855
702	0.0150306
714	0.0111404
726	0.00813423
738	0.0127318
750	0.0116708
762	0.0137928
774	0.015738
786	0.00990254
798	0.00901838
810	0.0111404
822	0.0051281
834	0.0194514
846	0.0305918
858	0.0180368
870	0.0176831
882	0.0247563
894	0.0300613
906	0.0185673
918	0.0143233
930	0.011494
942	0.011494
954	0.0134392
966	0.0194514
978	0.0129087
990	0.0217502
1002	0.0224575
1014	0.0153843
1026	0.0159148
1038	0.0150306
1050	0.0113172
1062	0.010433
1074	0.0106099
1086	0.0102562
1098	0.0113172
1110	0.0102562
1122	0.00990254
1134	0.00954887
1146	0.00954887
1158	0.00937204
1170	0.011494
1182	0.0109635
1194	0.0097257
1206	0.013616
1218	0.0106099
1230	0.0097257
1242	0.0100794
1254	0.0189209
1266	0.0424394
1278	0.0224575
1290	0.0155611
1302	0.0129087
1314	0.0123782
1326	0.0102562
1338	0.0145001
1350	0.0316527
1362	0.0213966
1374	0.0134392
1386	0.0106099
1398	0.00884155
1410	0.00884155
1422	0.0113172
1434	0.015738
1446	0.0967266
1458	0.137044
1470	0.0454456
1482	0.0113172
1494	0.00919521
1506	0.00866472
1518	0.00583542
1530	0.00389028
1542	0.00583542
1554	0.00618908
1566	0.00389028
1578	0.00848789
1590	0.00406711
1602	0.00406711
1614	0.0051281
1626	0.00495127
1638	0.00495127
1650	0.00601225
1662	0.00212197
1674	0.00583542
1686	0.00548176
1698	0.00689641
1710	0.0028293
1722	0.00371345
1734	0.00477444
1746	0.00247563
1758	0.0028293
1770	0.00318296
1782	0.00176831
1794	0.00318296
1806	0.00265246
1818	0.00247563
1830	0.00212197
1842	0.00247563
1854	0.00194514
1866	0.00159148
1878	0.00212197
1890	0.00212197
1902	0.00194514
1914	0.00176831
1926	0.00194514
1938	0.00176831
1950	0.00176831
1962	0.00123782
1974	0.00141465
1986	0.00159148
1998	0.000884155
2010	0.00159148
2022	0.000884155
2034	0.00141465
2046	0.00123782
2058	0.000707324
2070	0.000884155
2082	0.000530493
2094	0
2106	0.000176831
2118	0.000353662
2130	0.000884155
2142	0.000707324
2154	0.000707324
2166	0.000884155
2178	0.000884155
2190	0.00106099
2202	0.00106099
2214	0.00106099
2226	0.00176831
2238	0.00212197
2250	0.00212197
2262	0.00159148
2274	0.00194514
2286	0.00123782
2298	0.00212197
2310	0.00353662
2322	0.00318296
2334	0.00442078
2346	0.00565859
2358	0.00265246
2370	0.00919521
2382	0.00601225
2394	0.00353662
2406	0.00371345
2418	0.00353662
2430	0.00318296
2442	0.00265246
2454	0.00247563
2466	0.0028293
2478	0.00389028
2490	0.00459761
2502	0.00406711
2514	0.00406711
2526	0.00495127
2538	0.0051281
2550	0.0051281
2562	0.0051281
2574	0.00583542
2586	0.00831106
2598	0.0109635
2610	0.0129087
2622	0.0118477
2634	0.0116708
2646	0.0148538
2658	0.0189209
2670	0.0249332
2682	0.0208661
2694	0.0159148
2706	0.0150306
2718	0.013616
2730	0.0116708
2742	0.0109635
2754	0.010433
2766	0.0116708
2778	0.0143233
2790	0.0213966
2802	0.0290003
2814	0.0297076
2826	0.0348357
2838	0.0636592
2850	0.276033
2862	0.812008
2874	0.357199
2886	0.129617
2898	0.180191
2910	0.384961
2922	0.913686
2934	1.76831
2946	1.04313
2958	0.273911
2970	0.0838179
2982	0.0309454
2994	0.0208661
3006	0.0166221
3018	0.0153843
3030	0.0145001
3042	0.00884155
3054	0.0074269
3066	0.00707324
3078	0.00848789
3090	0.00937204
3102	0.00760373
3114	0.00707324
3126	0.00760373
3138	0.00831106
3150	0.010433
3162	0.00937204
3174	0.00760373
3186	0.00671958
3198	0.00636592
3210	0.00636592
3222	0.00618908
3234	0.00548176
3246	0.00495127
3258	0.00548176
3270	0.00636592
3282	0.00671958
3294	0.00548176
3306	0.0051281
3318	0.00654275
3330	0.00548176
3342	0.00530493
3354	0.00601225
3366	0.0074269
3378	0.00671958
3390	0.00725007
3402	0.00760373
3414	0.00671958
3426	0.00583542
3438	0.00707324
3450	0.00689641
3462	0.00495127
3474	0.0051281
3486	0.00583542
3498	0.00530493
3510	0.00406711
3522	0.00442078
3534	0.00459761
3546	0.00353662
3558	0.00335979
3570	0.00247563
3582	0.0028293
3594	0.000884155
3606	0.00335979
3618	0.00371345
3630	0.00353662
3642	0.00300613
3654	0.00548176
3666	0.00318296
3678	0.00654275
3690	0.00459761
3702	0.00176831
3714	0.00495127
3726	0
3738	0.00335979
3750	0.00477444
3762	0.00247563
3774	0.00442078
3786	0.00406711
3798	0.00176831
3810	0.00265246
3822	0.00459761
3834	0.00778056
3846	0.00495127
3858	0.00495127
3870	0.00671958
3882	0.000707324
3894	0.00442078
3906	0.00530493
3918	0.00371345
3930	0.00371345
3942	0.011494
3954	0.00353662
3966	0.0129087
