Infrared Spectrum: [1,1'-Biphenyl]-4-amine
Formula: C 12 H 11 N
CAS: 92-67-1
Origin: Sadtler Research Labs Under US-EPA Contract
1/CM	ABSORBANCE
450	0.0549229
462	0.0586864
474	0.0692123
486	0.0709764
498	0.107494
510	0.112727
522	0.0752691
534	0.0652136
546	0.0867359
558	0.130016
570	0.0689183
582	0.0139365
594	0.0224631
606	0.0254033
618	0.0332243
630	0.0516887
642	0.122018
654	0.273733
666	0.220633
678	0.190231
690	0.266382
702	0.263324
714	0.152832
726	0.0940864
738	0.0802675
750	0.186585
762	0.322716
774	0.134191
786	0.0599213
798	0.0533352
810	0.0964386
822	0.199463
834	0.164945
846	0.0566283
858	0.0278731
870	0.0172296
882	0.0105847
894	0.0119372
906	0.00976146
918	0.00570399
930	0.000117608
942	0.00229336
954	0.00576279
966	0.00688007
978	0.0102907
990	0.0134073
1002	0.0310485
1014	0.0306369
1026	0.0137013
1038	0.0271086
1050	0.0237568
1062	0.0384578
1074	0.0493954
1086	0.0453967
1098	0.029108
1110	0.0234628
1122	0.0401631
1134	0.0344003
1146	0.015289
1158	0.00993788
1170	0.0349884
1182	0.167062
1194	0.0526884
1206	0.00464552
1218	0.00529236
1230	0.0157007
1242	0.0361057
1254	0.0890881
1266	0.297195
1278	0.487426
1290	0.166651
1302	0.014701
1314	0.00552758
1326	0.00529236
1338	0.0014113
1350	0.00517475
1362	0.00264618
1374	0.000646844
1386	0.00105847
1398	0.00158771
1410	0.00864419
1422	0.0194641
1434	0.0232864
1446	0.0380462
1458	0.0336359
1470	0.0760336
1482	0.306369
1494	0.433385
1506	0.0879708
1518	0.401749
1530	0.221397
1542	0.0371641
1554	0.040516
1566	0.0638611
1578	0.078915
1590	0.0911462
1602	0.185703
1614	0.367878
1626	0.58804
1638	0.279437
1650	0.0805615
1662	0.0440442
1674	0.0211106
1686	0.0107611
1698	0.0088206
1710	0.0126429
1722	0.00617442
1734	0.0059392
1746	0.00987907
1758	0.00535116
1770	0.000411628
1782	0.00388106
1794	0.0115844
1806	0.0088206
1818	0.00635083
1830	0.00376346
1842	0.00611562
1854	0.0112904
1866	0.020405
1878	0.0294608
1890	0.0172296
1902	0.00511595
1914	0.00658605
1926	0.0133485
1938	0.0176412
1950	0.0179352
1962	0.00905582
1974	0.0028814
1986	0.00346944
1998	0.00329302
2010	0.00317542
2022	0.00370465
2034	0.00476312
2046	0.00458671
2058	0.00517475
2070	0.00505714
2082	0.00411628
2094	0.00370465
2106	0.00423389
2118	0.00323422
2130	0.00111728
2142	0.00135249
2154	0.00117608
2166	0.00135249
2178	0.00188173
2190	0.00205814
2202	0.000823256
2214	0.00029402
2226	0.00123488
2238	0.000646844
2250	0.00129369
2262	0.00264618
2274	0.00305781
2286	0.00364585
2298	0.00358704
2310	0.00535116
2322	0.00705648
2334	0.00793854
2346	0.00782093
2358	0.00617442
2370	0.00458671
2382	0.00270498
2394	0.00223455
2406	0.00276379
2418	0.00364585
2430	0.00423389
2442	0.00470432
2454	0.00523356
2466	0.00388106
2478	0.00246977
2490	0.00276379
2502	0.00346944
2514	0.0044691
2526	0.0059392
2538	0.00711528
2550	0.00787974
2562	0.00764452
2574	0.00699768
2586	0.00711528
2598	0.00758572
2610	0.00711528
2622	0.00617442
2634	0.00535116
2646	0.00523356
2658	0.00482193
2670	0.00511595
2682	0.00464552
2694	0.00458671
2706	0.00493954
2718	0.00517475
2730	0.00405748
2742	0.00464552
2754	0.00564518
2766	0.00558638
2778	0.00570399
2790	0.00552758
2802	0.00535116
2814	0.00540997
2826	0.00540997
2838	0.00611562
2850	0.00699768
2862	0.00893821
2874	0.0114668
2886	0.014113
2898	0.0143482
2910	0.0115844
2922	0.00970266
2934	0.0101731
2946	0.0104671
2958	0.0101143
2970	0.0135837
2982	0.0222279
2994	0.0455731
3006	0.0719761
3018	0.108964
3030	0.28173
3042	0.260208
3054	0.142894
3066	0.237862
3078	0.196347
3090	0.119666
3102	0.0777977
3114	0.038399
3126	0.0246977
3138	0.0187585
3150	0.0147598
3162	0.0116432
3174	0.00905582
3186	0.00911462
3198	0.00958505
3210	0.0146422
3222	0.0135249
3234	0.0135249
3246	0.0107023
3258	0.00723289
3270	0.00629203
3282	0.00552758
3294	0.00652724
3306	0.00564518
3318	0.00664485
3330	0.00805615
3342	0.00946744
3354	0.01229
3366	0.0164063
3378	0.0193465
3390	0.0263442
3402	0.0535704
3414	0.0723877
3426	0.0507479
3438	0.0145246
3450	0.0148774
3462	0.0160535
3474	0.0226983
3486	0.0336359
3498	0.0349296
3510	0.029108
3522	0.0146422
3534	0.0074093
3546	0.00411628
3558	0.00388106
3570	0.00317542
3582	0.00270498
3594	0.00270498
3606	0.000999668
3618	0.0015289
3630	0.00246977
3642	0.00235216
3654	0.00229336
3666	0.00358704
3678	0
3690	0.00282259
3702	0.00276379
3714	0.00276379
3726	0.00135249
3738	0.00282259
3750	0.000411628
3762	0.0028814
3774	5.8804e-05
3786	0.000117608
3798	0.000117608
3810	0.000117608
3822	0.000117608
3834	0.00111728
3846	0.00223455
3858	0.00458671
3870	0.00611562
3882	0.00305781
3894	0.00535116
3906	0.00235216
3918	0.000117608
3930	0.00135249
3942	0.00458671
3954	0.000764452
3966	0.00323422
