Infrared Spectrum: 1,1'-Biphenyl, 4-bromo-
Formula: C 12 H 9 Br
CAS: 92-66-0
Origin: Sadtler Research Labs Under US-EPA Contract
1/CM	ABSORBANCE
450	0
462	0.0208583
474	0.0240846
486	0.038828
498	0.0736419
510	0.0475315
522	0.0361269
534	0.0331633
546	0.0341011
558	0.0208583
570	0.0165066
582	0.0157188
594	0.0108043
606	0.0183448
618	0.0190576
630	0.0157563
642	0.0195828
654	0.0241972
666	0.0341762
678	0.0570978
690	0.13089
702	0.159626
714	0.0783688
726	0.0389781
738	0.0612995
750	0.261142
762	0.218825
774	0.0777686
786	0.0342137
798	0.0323379
810	0.0500075
822	0.127288
834	0.128451
846	0.045093
858	0.0237845
870	0.0205957
882	0.0194703
894	0.019958
906	0.0152686
918	0.0186825
930	0.0173694
942	0.0142932
954	0.0188325
966	0.0154187
978	0.0169193
990	0.0377401
1002	0.158839
1014	0.185849
1026	0.0283989
1038	0.0422044
1050	0.0277611
1062	0.0607368
1074	0.190614
1086	0.124325
1098	0.035039
1110	0.0278361
1122	0.0219463
1134	0.0185699
1146	0.01872
1158	0.0165816
1170	0.0206708
1182	0.0294118
1194	0.0229592
1206	0.0224715
1218	0.0282863
1230	0.0257353
1242	0.0222839
1254	0.0251726
1266	0.0265606
1278	0.0283613
1290	0.0241221
1302	0.0248724
1314	0.026148
1326	0.0283989
1338	0.0254727
1350	0.0251726
1362	0.0271609
1374	0.0312875
1386	0.0458058
1398	0.0500075
1410	0.0295243
1422	0.0295243
1434	0.0393908
1446	0.057623
1458	0.0570228
1470	0.206107
1482	0.362733
1494	0.114496
1506	0.066289
1518	0.0468938
1530	0.0300495
1542	0.0332383
1554	0.0304622
1566	0.0315501
1578	0.0392407
1590	0.0486945
1602	0.0883853
1614	0.0440801
1626	0.0258854
1638	0.0350015
1650	0.038753
1662	0.0227341
1674	0.0267857
1686	0.0203706
1698	0.0207458
1710	0.0159439
1722	0.0168442
1734	0.0163565
1746	0.0179697
1758	0.0171068
1770	0.0226591
1782	0.0211209
1794	0.0268232
1806	0.0194703
1818	0.0158688
1830	0.0166942
1842	0.0132803
1854	0.0159064
1866	0.0204457
1878	0.0241972
1890	0.0328256
1902	0.0257353
1914	0.0170693
1926	0.0179697
1938	0.0214211
1950	0.0218712
1962	0.0219838
1974	0.0132428
1986	0.0133553
1998	0.0131303
2010	0.0128676
2022	0.0128301
2034	0.0128301
2046	0.01238
2058	0.0127926
2070	0.012605
2082	0.0124175
2094	0.01253
2106	0.0121549
2118	0.0119298
2130	0.0120423
2142	0.0121173
2154	0.012605
2166	0.0121549
2178	0.0119298
2190	0.0118923
2202	0.0123049
2214	0.0118923
2226	0.0117422
2238	0.012455
2250	0.0126801
2262	0.0133178
2274	0.0137305
2286	0.0143682
2298	0.0160189
2310	0.017482
2322	0.0183073
2334	0.0172569
2346	0.0190951
2358	0.0202206
2370	0.0163941
2382	0.0143682
2394	0.0124175
2406	0.0118172
2418	0.0117797
2430	0.0122674
2442	0.0121173
2454	0.0122299
2466	0.0116297
2478	0.0117422
2490	0.0121924
2502	0.0124175
2514	0.0121549
2526	0.01238
2538	0.0122674
2550	0.0127926
2562	0.0126801
2574	0.0130552
2586	0.0134304
2598	0.0139556
2610	0.0136179
2622	0.0124175
2634	0.0122674
2646	0.0119298
2658	0.0124175
2670	0.0127551
2682	0.0118547
2694	0.0123424
2706	0.0114796
2718	0.011217
2730	0.0114046
2742	0.0117047
2754	0.0120423
2766	0.0124175
2778	0.0128676
2790	0.0124175
2802	0.0131303
2814	0.0136179
2826	0.0137305
2838	0.0151561
2850	0.0193577
2862	0.0192452
2874	0.0183824
2886	0.0180822
2898	0.0189451
2910	0.0204832
2922	0.0241972
2934	0.022434
2946	0.0198454
2958	0.0189451
2970	0.018645
2982	0.0180447
2994	0.0189076
3006	0.0238971
3018	0.0382278
3030	0.0902611
3042	0.117572
3054	0.0745798
3066	0.131678
3078	0.145183
3090	0.101478
3102	0.0678646
3114	0.0382653
3126	0.0243848
3138	0.0194328
3150	0.0180072
3162	0.017557
3174	0.0168442
3186	0.0165441
3198	0.0160189
3210	0.0155687
3222	0.0161315
3234	0.0160939
3246	0.0159814
3258	0.0165816
3270	0.0163565
3282	0.0174445
3294	0.0163941
3306	0.017557
3318	0.0163565
3330	0.0160189
3342	0.0172569
3354	0.0172944
3366	0.0173694
3378	0.0177446
3390	0.0173319
3402	0.0165816
3414	0.0171068
3426	0.0168442
3438	0.0175195
3450	0.0162815
3462	0.0156813
3474	0.0168067
3486	0.014931
3498	0.0163565
3510	0.0148935
3522	0.0151185
3534	0.017407
3546	0.0137305
3558	0.0147809
3570	0.0120798
3582	0.0158688
3594	0.0136555
3606	0.0161315
3618	0.018795
3630	0.017557
3642	0.0159814
3654	0.0162815
3666	0.0184574
3678	0.0200705
3690	0.0158688
3702	0.0190951
3714	0.0181948
3726	0.0159064
3738	0.0182698
3750	0.0141807
3762	0.0183073
3774	0.0181948
3786	0.0151936
3798	0.017632
3810	0.0236345
3822	0.0192827
3834	0.0198079
3846	0.0186825
3858	0.01887
3870	0.0199955
3882	0.0185699
3894	0.0228091
3906	0.0167692
3918	0.0204832
3930	0.0196954
3942	0.017632
3954	0.017557
3966	0.0205207
