Infrared Spectrum: p-Hydroxybiphenyl
Formula: C 12 H 10 O
CAS: 92-69-3
Origin: Sadtler Research Labs Under US-EPA Contract
1/CM	ABSORBANCE
450	0
462	0.0257829
474	0.0361147
486	0.048308
498	0.0728809
510	0.10853
522	0.087215
534	0.0591982
546	0.0753009
558	0.120165
570	0.0699954
582	0.0377901
594	0.0203843
606	0.0267137
618	0.022432
630	0.0240144
642	0.0358354
654	0.040024
666	0.0384416
678	0.0645968
690	0.160282
702	0.192953
714	0.110485
726	0.054172
738	0.0613391
750	0.145855
762	0.247497
774	0.112626
786	0.0446779
798	0.0555682
810	0.0921482
822	0.165588
834	0.257829
846	0.0985707
858	0.0406755
870	0.0314607
882	0.0278306
894	0.0337877
906	0.03416
918	0.0325776
930	0.0289476
942	0.0285753
954	0.0304368
966	0.0227113
978	0.0244798
990	0.0286683
1002	0.0462603
1014	0.0493319
1026	0.0319261
1038	0.0471911
1050	0.0347185
1062	0.0426302
1074	0.051845
1086	0.056592
1098	0.102573
1110	0.0726016
1122	0.0625491
1134	0.103504
1146	0.0864704
1158	0.141573
1170	0.825983
1182	0.61609
1194	0.183924
1206	0.103132
1218	0.0924274
1230	0.0962437
1242	0.14511
1254	0.4855
1266	0.341879
1278	0.122492
1290	0.0639453
1302	0.0454226
1314	0.0591052
1326	0.132824
1338	0.0838642
1350	0.0634799
1362	0.0440264
1374	0.0415132
1386	0.0388139
1398	0.0398378
1410	0.0540789
1422	0.0983845
1434	0.06711
1446	0.0758594
1458	0.0803272
1470	0.0931721
1482	0.2905
1494	0.372037
1506	0.1439
1518	0.43077
1530	0.142225
1542	0.0602221
1554	0.0656207
1566	0.0788379
1578	0.0931721
1590	0.114953
1602	0.171265
1614	0.259411
1626	0.123795
1638	0.0519381
1650	0.0407686
1662	0.0303438
1674	0.0354631
1686	0.028296
1698	0.0271791
1710	0.0219666
1722	0.0221528
1734	0.0250383
1746	0.0288545
1758	0.0255967
1770	0.0243867
1782	0.0255967
1794	0.0316469
1806	0.0269929
1818	0.0253175
1830	0.0244798
1842	0.0244798
1854	0.0293199
1866	0.0358354
1878	0.0409548
1890	0.0373247
1902	0.0269929
1914	0.0240144
1926	0.0267137
1938	0.0309022
1950	0.0325776
1962	0.0288545
1974	0.0240144
1986	0.0243867
1998	0.024759
2010	0.0244798
2022	0.0232697
2034	0.0228974
2046	0.0228974
2058	0.023549
2070	0.0256898
2082	0.0267137
2094	0.025876
2106	0.0230836
2118	0.0219666
2130	0.0216874
2142	0.0213151
2154	0.0219666
2166	0.0215012
2178	0.022432
2190	0.0215943
2202	0.0220597
2214	0.0216874
2226	0.0220597
2238	0.0227113
2250	0.0227113
2262	0.0234559
2274	0.0249452
2286	0.0254106
2298	0.0280168
2310	0.0314607
2322	0.0319261
2334	0.0309953
2346	0.0313676
2358	0.0343462
2370	0.0273652
2382	0.0256898
2394	0.023549
2406	0.0241075
2418	0.0280168
2430	0.0337877
2442	0.0285753
2454	0.024759
2466	0.0228974
2478	0.0228974
2490	0.0236421
2502	0.0255036
2514	0.0261552
2526	0.0240144
2538	0.0225251
2550	0.0216874
2562	0.0219666
2574	0.0222459
2586	0.0232697
2598	0.0239213
2610	0.0233628
2622	0.022339
2634	0.0221528
2646	0.0216874
2658	0.0222459
2670	0.0217805
2682	0.021222
2694	0.0219666
2706	0.021222
2718	0.0209428
2730	0.0209428
2742	0.0211289
2754	0.0215943
2766	0.0222459
2778	0.022339
2790	0.0222459
2802	0.0218736
2814	0.0219666
2826	0.0220597
2838	0.0238282
2850	0.0269929
2862	0.0265275
2874	0.0268068
2886	0.0277375
2898	0.0282029
2910	0.0301576
2922	0.0334154
2934	0.0315538
2946	0.0271791
2958	0.0255036
2970	0.025876
2982	0.0272721
2994	0.0369524
3006	0.057709
3018	0.0774417
3030	0.165867
3042	0.192208
3054	0.111322
3066	0.178805
3078	0.167449
3090	0.103411
3102	0.0734393
3114	0.0494249
3126	0.0369524
3138	0.030623
3150	0.0276445
3162	0.0263414
3174	0.0255967
3186	0.025969
3198	0.0250383
3210	0.0252244
3222	0.0261552
3234	0.0257829
3246	0.0260621
3258	0.0264344
3270	0.0267137
3282	0.0277375
3294	0.0268998
3306	0.0271791
3318	0.0264344
3330	0.027086
3342	0.029413
3354	0.0299714
3366	0.029506
3378	0.0307161
3390	0.0289476
3402	0.029506
3414	0.0308091
3426	0.0302507
3438	0.030623
3450	0.0297853
3462	0.0303438
3474	0.0310884
3486	0.028296
3498	0.0285753
3510	0.0282029
3522	0.0302507
3534	0.030623
3546	0.0260621
3558	0.027086
3570	0.0215943
3582	0.0291337
3594	0.0264344
3606	0.029506
3618	0.0308091
3630	0.0410478
3642	0.149485
3654	0.386185
3666	0.0873081
3678	0.03416
3690	0.025876
3702	0.0275514
3714	0.0243867
3726	0.0240144
3738	0.0231767
3750	0.0213151
3762	0.0297853
3774	0.0304368
3786	0.028296
3798	0.030623
3810	0.0347185
3822	0.0263414
3834	0.0309953
3846	0.0310884
3858	0.0303438
3870	0.0323915
3882	0.0311815
3894	0.03416
3906	0.0261552
3918	0.0320192
3930	0.033043
3942	0.0322984
3954	0.03416
3966	0.0346254
