Infrared Spectrum: Phenothiazine
Formula: C 12 H 9 N S
CAS: 92-84-2
Origin: Sadtler Research Labs Under US-EPA Contract
1/CM	ABSORBANCE
450	0.00198993
462	0.00291383
474	0.00668049
486	0.00589873
498	0.0100918
510	0.00781759
522	0.00234528
534	0.0102339
546	0.0140717
558	0.0165591
570	0.0155641
582	0.00845721
594	0.012366
606	0.0161327
618	0.0114421
630	0.0105893
642	0.0130056
654	0.0144981
666	0.0115132
678	0.0132188
690	0.0230974
702	0.0181937
714	0.0513118
726	0.0674445
738	0.242203
750	0.163032
762	0.0248741
774	0.012366
786	0.00732011
798	0.00533017
810	0.00461948
822	0.00405093
834	0.0102339
846	0.00867042
858	0.00753331
870	0.0120107
882	0.0150666
894	0.00497483
906	0.00369559
918	0.00909683
930	0.00632514
942	0.00362452
954	0.00454842
966	0.00454842
978	0.00469055
990	0.00376666
1002	0.004122
1014	0.00632514
1026	0.0225999
1038	0.0422861
1050	0.00682262
1062	0.0139295
1074	0.0103761
1086	0.0106603
1098	0.00533017
1110	0.0126503
1122	0.0502458
1134	0.038093
1146	0.0115132
1158	0.00952325
1170	0.00518804
1182	0.00255848
1194	0.00227421
1206	0.00234528
1218	0.00732011
1230	0.0124371
1242	0.0307018
1254	0.0651703
1266	0.0337578
1278	0.0476162
1290	0.180444
1302	0.184424
1314	0.0497483
1326	0.0129346
1338	0.0100207
1350	0.0120107
1362	0.0239503
1374	0.0304886
1386	0.0243056
1398	0.0612615
1410	0.103121
1422	0.0224578
1434	0.0351792
1446	0.0950903
1458	0.361386
1470	0.71069
1482	0.134249
1494	0.0645307
1506	0.0489665
1518	0.0384483
1530	0.0230974
1542	0.0264377
1554	0.0224578
1566	0.0621854
1578	0.0864199
1590	0.0367427
1602	0.0321943
1614	0.0127924
1626	0.00646728
1638	0.00604086
1650	0.00845721
1662	0.00838614
1674	0.00888362
1686	0.00732011
1698	0.00469055
1710	0.00369559
1722	0.00440628
1734	0.00675155
1746	0.00980752
1758	0.0146402
1770	0.0125792
1782	0.00703583
1794	0.00838614
1806	0.00518804
1818	0.00369559
1830	0.00533017
1842	0.00852828
1854	0.00376666
1866	0.00561445
1878	0.00945218
1890	0.00575659
1902	0.00454842
1914	0.012366
1926	0.00476162
1938	0.00142138
1950	0.00120817
1962	0.00149245
1974	0.00120817
1986	0.00135031
1998	0.000568552
2010	0.000568552
2022	0.00106603
2034	0.000497483
2046	0.000426414
2058	0.000426414
2070	0.000568552
2082	0.000781759
2094	0.00163459
2106	0.00177672
2118	0.00227421
2130	0.00234528
2142	0.00220314
2154	0.00234528
2166	0.00156352
2178	0.000923897
2190	0.000781759
2202	0.000497483
2214	0.00071069
2226	0.000852828
2238	0.000923897
2250	0.000639621
2262	0.00149245
2274	0.00177672
2286	0.00220314
2298	0.00305597
2310	0.00405093
2322	0.00369559
2334	0.00213207
2346	0.00220314
2358	0.00170566
2370	0.00163459
2382	0.00198993
2394	0.00177672
2406	0.00156352
2418	0.00163459
2430	0.00170566
2442	0.00255848
2454	0.00305597
2466	0.0031981
2478	0.00341131
2490	0.0029849
2502	0.00291383
2514	0.00440628
2526	0.00732011
2538	0.00795973
2550	0.006183
2562	0.00284276
2574	0.00234528
2586	0.00284276
2598	0.00284276
2610	0.00213207
2622	0.00163459
2634	0.00241635
2646	0.00255848
2658	0.00163459
2670	0.00170566
2682	0.00149245
2694	0.00184779
2706	0.00255848
2718	0.00220314
2730	0.00255848
2742	0.00227421
2754	0.00177672
2766	0.00135031
2778	0.00120817
2790	0.00127924
2802	0.00106603
2814	0.00198993
2826	0.00156352
2838	0.00241635
2850	0.00248741
2862	0.00248741
2874	0.00305597
2886	0.00234528
2898	0.00177672
2910	0.00156352
2922	0.000781759
2934	0.00184779
2946	0.0029849
2958	0.00284276
2970	0.0031981
2982	0.004122
2994	0.00653835
3006	0.0168434
3018	0.0297779
3030	0.0285697
3042	0.027788
3054	0.0351792
3066	0.0697898
3078	0.0765413
3090	0.0531596
3102	0.02061
3114	0.00568552
3126	0.00334024
3138	0.00227421
3150	0.00241635
3162	0.00262955
3174	0.00334024
3186	0.00277169
3198	0.00198993
3210	0.00213207
3222	0.00142138
3234	0.00184779
3246	0.00170566
3258	0.00170566
3270	0.00284276
3282	0.00198993
3294	0.00241635
3306	0.00291383
3318	0.00291383
3330	0.00198993
3342	0.0031981
3354	0.00284276
3366	0.00305597
3378	0.00326917
3390	0.00326917
3402	0.00355345
3414	0.00461948
3426	0.0148534
3438	0.030915
3450	0.0132899
3462	0.00433521
3474	0.00355345
3486	0.00483269
3498	0.00419307
3510	0.00284276
3522	0.00220314
3534	0.00184779
3546	0.00334024
3558	0.0029849
3570	0.00262955
3582	0.00291383
3594	0.00248741
3606	0.00291383
3618	0.00170566
3630	0.002061
3642	0.00241635
3654	0.00198993
3666	0.00241635
3678	0.00248741
3690	0.000284276
3702	0.00362452
3714	0.00184779
3726	0.00163459
3738	0.00220314
3750	0.000639621
3762	0.00326917
3774	0.002061
3786	0.00241635
3798	0.00120817
3810	0.00255848
3822	0.00248741
3834	0.00369559
3846	0.00305597
3858	0.00376666
3870	0.004122
3882	0.00390879
3894	0.00397986
3906	0.00369559
3918	0.00419307
3930	0.00419307
3942	0.004122
3954	0.00547231
3966	0.00383773
