Infrared Spectrum: 1,1'-Biphenyl, 4-nitro-
Formula: C 12 H 9 N O 2
CAS: 92-93-3
Origin: Sadtler Research Labs Under US-EPA Contract
1/CM	ABSORBANCE
450	0
462	0.0435651
474	0.043999
486	0.0425237
498	0.0292459
510	0.0341925
522	0.0301137
534	0.0385317
546	0.0329775
558	0.0261217
570	0.0297666
582	0.0264688
594	0.0351471
606	0.033585
618	0.0321097
630	0.0278573
642	0.0306344
654	0.0330643
666	0.0361885
678	0.0627441
690	0.13408
702	0.157598
714	0.100148
726	0.0903411
738	0.194134
750	0.227198
762	0.0880847
774	0.0727242
786	0.0414823
798	0.0357546
810	0.0391391
822	0.0471232
834	0.051983
846	0.216784
858	0.299401
870	0.0695132
882	0.030808
894	0.0295062
906	0.0304608
918	0.0264688
930	0.0224768
942	0.0221297
954	0.0222164
966	0.0249067
978	0.0222164
990	0.0249067
1002	0.0527641
1014	0.0803611
1026	0.0279441
1038	0.0277706
1050	0.0252539
1062	0.0290723
1074	0.0348868
1086	0.0365356
1098	0.0529376
1110	0.0610084
1122	0.0478174
1134	0.0267292
1146	0.0250803
1158	0.0244728
1170	0.0262952
1182	0.0384449
1194	0.0366224
1206	0.0266424
1218	0.0275102
1230	0.0332379
1242	0.0322833
1254	0.0320229
1266	0.0397466
1278	0.0512888
1290	0.0575371
1302	0.078799
1314	0.0941596
1326	0.0922503
1338	0.223206
1350	0.824699
1362	0.452834
1374	0.155949
1386	0.0864359
1398	0.0656079
1410	0.0477306
1422	0.0423501
1434	0.0475571
1446	0.0633516
1458	0.0653476
1470	0.0728109
1482	0.185976
1494	0.10709
1506	0.0945067
1518	0.166276
1530	0.452747
1542	0.520004
1554	0.193005
1566	0.115074
1578	0.133038
1590	0.209841
1602	0.256878
1614	0.107524
1626	0.0517227
1638	0.040007
1650	0.0387052
1662	0.0297666
1674	0.0339322
1686	0.033585
1698	0.0305476
1710	0.0195262
1722	0.0196997
1734	0.0262085
1746	0.0245596
1758	0.0219561
1770	0.0227371
1782	0.0227371
1794	0.0351471
1806	0.0232578
1818	0.018398
1830	0.0190923
1842	0.0167491
1854	0.0146663
1866	0.0178773
1878	0.0182244
1890	0.0210883
1902	0.0188319
1914	0.0217825
1926	0.0244728
1938	0.0225636
1950	0.0206544
1962	0.0224768
1974	0.0166623
1986	0.0146663
1998	0.0151002
2010	0.0147531
2022	0.0146663
2034	0.0146663
2046	0.0153606
2058	0.0150135
2070	0.0151002
2082	0.0150135
2094	0.0150135
2106	0.0153606
2118	0.0152738
2130	0.0157077
2142	0.0163152
2154	0.0157945
2166	0.0160549
2178	0.0165756
2190	0.0168359
2202	0.0175302
2214	0.0180509
2226	0.0180509
2238	0.0181376
2250	0.0177037
2262	0.0177037
2274	0.0178773
2286	0.0173566
2298	0.0147531
2310	0.0130174
2322	0.0164888
2334	0.0180509
2346	0.0165756
2358	0.0190055
2370	0.0174434
2382	0.0160549
2394	0.0184848
2406	0.0178773
2418	0.0181376
2430	0.0180509
2442	0.0189187
2454	0.0201337
2466	0.0199601
2478	0.0189187
2490	0.017183
2502	0.0165756
2514	0.0163152
2526	0.016402
2538	0.0163152
2550	0.0163152
2562	0.0163152
2574	0.0165756
2586	0.0170963
2598	0.0172698
2610	0.0175302
2622	0.0164888
2634	0.0154474
2646	0.0159681
2658	0.0157077
2670	0.0153606
2682	0.0159681
2694	0.0177905
2706	0.0181376
2718	0.0180509
2730	0.0169227
2742	0.0168359
2754	0.0170963
2766	0.0166623
2778	0.0167491
2790	0.0166623
2802	0.0168359
2814	0.017183
2826	0.0181376
2838	0.0190923
2850	0.0203072
2862	0.0237785
2874	0.0275102
2886	0.0278573
2898	0.0231711
2910	0.0217825
2922	0.0217825
2934	0.0223032
2946	0.0241257
2958	0.0239521
2970	0.0214354
2982	0.0210883
2994	0.0223032
3006	0.0249935
3018	0.0295062
3030	0.0517227
3042	0.0786254
3054	0.0564089
3066	0.0946803
3078	0.118372
3090	0.0818364
3102	0.0507681
3114	0.0360149
3126	0.0271631
3138	0.0239521
3150	0.0233446
3162	0.0225636
3174	0.0210883
3186	0.0208279
3198	0.0215222
3210	0.0216957
3222	0.0214354
3234	0.0209147
3246	0.0205676
3258	0.0204808
3270	0.0207411
3282	0.0205676
3294	0.0205676
3306	0.0208279
3318	0.0207411
3330	0.0209147
3342	0.0202204
3354	0.0204808
3366	0.0205676
3378	0.0198733
3390	0.0200469
3402	0.0193526
3414	0.0195262
3426	0.0192658
3438	0.0192658
3450	0.0184848
3462	0.0183112
3474	0.0190055
3486	0.0173566
3498	0.0180509
3510	0.0179641
3522	0.0186583
3534	0.0183112
3546	0.017183
3558	0.0168359
3570	0.0157945
3582	0.0160549
3594	0.0175302
3606	0.0172698
3618	0.0173566
3630	0.0187451
3642	0.0169227
3654	0.0163152
3666	0.0151002
3678	0.0199601
3690	0.0195262
3702	0.0172698
3714	0.0175302
3726	0.0160549
3738	0.0193526
3750	0.0156209
3762	0.0133646
3774	0.0164888
3786	0.0144928
3798	0.0229107
3810	0.0146663
3822	0.0217825
3834	0.0212618
3846	0.0156209
3858	0.0166623
3870	0.0235182
3882	0.0189187
3894	0.0221297
3906	0.0146663
3918	0.0211751
3930	0.0224768
3942	0.0190055
3954	0.0217825
3966	0.0187451
