Infrared Spectrum: 2-Propanol, 1,1,1,3,3,3-hexafluoro-
Formula: C 3 H 2 F 6 O
CAS: 920-66-1
Origin: Sadtler Research Labs Under US-EPA Contract
1/CM	ABSORBANCE
450	0.00840701
462	0.0182868
474	0.00595241
486	0.003866
498	0.0101252
510	0.0137458
522	0.0155867
534	0.0146662
546	0.011598
558	0.0103707
570	0.00306825
582	0.00196368
594	0.00306825
606	0.00380463
618	0.00202505
630	0.000552285
642	0.00362054
654	0.0024546
666	0.00202505
678	0.0549217
690	0.122239
702	0.0239937
714	0.00607514
726	0.0179186
738	0.0382304
750	0.0184095
762	0.00472511
774	0.00135003
786	0.00251597
798	0.0026387
810	0.0061365
822	0.0230732
834	0.0500738
846	0.0365122
858	0.013623
870	0.0100639
882	0.0378008
894	0.0826587
906	0.0341803
918	0.00895929
930	0.00797745
942	0.00693425
954	0.00607514
966	0.00540012
978	0.00441828
990	0.00546149
1002	0.00472511
1014	0.0061365
1026	0.00681152
1038	0.00932748
1050	0.0138685
1062	0.0215391
1074	0.0280438
1086	0.0484784
1098	0.169736
1110	0.452935
1122	0.386722
1134	0.117698
1146	0.0635741
1158	0.0610582
1170	0.10027
1182	0.22791
1194	0.474658
1206	0.61365
1218	0.444405
1230	0.412802
1242	0.439312
1254	0.360028
1266	0.336894
1278	0.279763
1290	0.251597
1302	0.322841
1314	0.208518
1326	0.0701402
1338	0.0406236
1350	0.0499511
1362	0.0839473
1374	0.157033
1386	0.116348
1398	0.0495216
1410	0.0370645
1422	0.0330757
1434	0.0237483
1446	0.0119048
1458	0.00662742
1470	0.00429555
1482	0.00220914
1494	0.00251597
1506	0.00325235
1518	0.00208641
1530	0.0024546
1542	0.00104321
1554	0.0012273
1566	0.00098184
1578	0.00153413
1590	0.00153413
1602	0.00104321
1614	0.000797745
1626	0.00165686
1638	0.00073638
1650	0.00116594
1662	0.00049092
1674	0.00135003
1686	0.00085911
1698	0.0014114
1710	0.00214778
1722	0.00349781
1734	0.00300689
1746	0.000920475
1758	0.00098184
1770	0.00104321
1782	0.00061365
1794	0.00153413
1806	0.00085911
1818	0.000675015
1830	0.00085911
1842	0.00098184
1854	0.00177959
1866	0.00116594
1878	0.00061365
1890	0.00061365
1902	0.00049092
1914	0.00049092
1926	0.000552285
1938	0.000797745
1950	0.000797745
1962	0.00085911
1974	0.00104321
1986	0.0014114
1998	0.00196368
2010	0.00171822
2022	0.0012273
2034	0.00128867
2046	0.00098184
2058	0.000920475
2070	0.00061365
2082	0.00116594
2094	0.00147276
2106	0.00128867
2118	0.0012273
2130	0.00177959
2142	0.00190232
2154	0.00147276
2166	0.00098184
2178	0.0014114
2190	0.0012273
2202	0.00165686
2214	0.00177959
2226	0.0012273
2238	0.00128867
2250	0.00116594
2262	0.00128867
2274	0.00159549
2286	0.00233187
2298	0.00349781
2310	0.00466374
2322	0.00619787
2334	0.00484784
2346	0.00441828
2358	0.00429555
2370	0.000675015
2382	0.00208641
2394	0.00233187
2406	0.00208641
2418	0.00251597
2430	0.0026387
2442	0.00214778
2454	0.00177959
2466	0.00171822
2478	0.0024546
2490	0.00227051
2502	0.00202505
2514	0.00147276
2526	0.0014114
2538	0.00147276
2550	0.0014114
2562	0.00159549
2574	0.00165686
2586	0.00171822
2598	0.00135003
2610	0.00147276
2622	0.00116594
2634	0.00085911
2646	0.00116594
2658	0.00098184
2670	0.00135003
2682	0.000920475
2694	0.00073638
2706	0.00116594
2718	0.00049092
2730	0.00036819
2742	0.000429555
2754	0.000429555
2766	0.000552285
2778	0.000306825
2790	0.000552285
2802	0.000675015
2814	0.00061365
2826	0.00098184
2838	0.00061365
2850	0.00085911
2862	0.000429555
2874	0.00061365
2886	0.00153413
2898	0.00110457
2910	0.00153413
2922	0.00214778
2934	0.00435692
2946	0.00662742
2958	0.00552285
2970	0.00472511
2982	0.00472511
2994	0.00380463
3006	0.00147276
3018	0.000675015
3030	0.00110457
3042	0.00085911
3054	0.000552285
3066	0.00036819
3078	0.000675015
3090	0.00085911
3102	0.00061365
3114	0.00061365
3126	0.000797745
3138	0.000552285
3150	0.00036819
3162	0.00036819
3174	0.00049092
3186	0.00073638
3198	0.00073638
3210	0.000429555
3222	0.00073638
3234	0.00073638
3246	0.000184095
3258	0.000920475
3270	0.00098184
3282	6.1365e-05
3294	0.00128867
3306	0.000675015
3318	0.00049092
3330	0.00049092
3342	0.00110457
3354	0.00098184
3366	0.000920475
3378	0.00061365
3390	0.000675015
3402	0.000920475
3414	0.00085911
3426	0.000429555
3438	0.000797745
3450	0.00153413
3462	0.000552285
3474	0.00085911
3486	0.00110457
3498	0.000675015
3510	0.00085911
3522	0.000429555
3534	0.000797745
3546	0.00184095
3558	0.0012273
3570	0.00233187
3582	0.00153413
3594	0.00227051
3606	0.00619787
3618	0.0306211
3630	0.0622241
3642	0.0347326
3654	0.0266938
3666	0.0370031
3678	0.02203
3690	0.00546149
3702	0.00270006
3714	0.00184095
3726	0.00110457
3738	0.00147276
3750	0
3762	6.1365e-05
3774	0.000306825
3786	0.00085911
3798	0.0014114
3810	0.00135003
3822	0.00104321
3834	0.00147276
3846	0.00110457
3858	0.00085911
3870	0.00288416
3882	0.00159549
3894	0.00233187
3906	0.00214778
3918	0.00085911
3930	0.0012273
3942	0.000552285
3954	0.00128867
3966	0.00061365
