Infrared Spectrum: Succinic acid diisopropyl ester
Formula: C 10 H 18 O 4
CAS: 924-88-9
Origin: Sadtler Research Labs Under US-EPA Contract
1/CM	ABSORBANCE
450	0.0111973
462	0.00241172
474	0.00344532
486	0.0133219
498	0.0114844
510	0.00918752
522	0.0113121
534	0.00953205
546	0.0206145
558	0.0140684
570	0.021361
582	0.0166524
594	0.0170543
606	0.0294001
618	0.0240024
630	0.0311801
642	0.0182602
654	0.0172266
666	0.018375
678	0.0215333
690	0.0241747
702	0.0179731
714	0.0179731
726	0.0202125
738	0.023945
750	0.0262993
762	0.0203274
774	0.0241747
786	0.0245192
798	0.0292852
810	0.0351423
822	0.0427794
834	0.045995
846	0.0268161
858	0.0323286
870	0.0465692
882	0.0365778
894	0.0320415
906	0.02762
918	0.0383579
930	0.0524837
942	0.0572497
954	0.0751654
966	0.0725814
978	0.0717201
990	0.0645997
1002	0.0552974
1014	0.0396786
1026	0.03497
1038	0.0384153
1050	0.0377837
1062	0.0423774
1074	0.0454208
1086	0.062188
1098	0.140225
1110	0.413783
1122	0.304049
1134	0.231238
1146	0.234741
1158	0.269998
1170	0.375195
1182	0.292048
1194	0.206375
1206	0.191502
1218	0.197245
1230	0.186047
1242	0.182889
1254	0.187081
1266	0.183923
1278	0.144991
1290	0.110308
1302	0.0948037
1314	0.0976748
1326	0.0884873
1338	0.104451
1350	0.0961244
1362	0.112432
1374	0.171003
1386	0.142062
1398	0.0670115
1410	0.0453634
1422	0.0529431
1434	0.0548954
1446	0.0482919
1458	0.0448466
1470	0.0521392
1482	0.0348552
1494	0.0213036
1506	0.0179731
1518	0.016193
1530	0.0145278
1542	0.0123457
1554	0.0153317
1566	0.0137813
1578	0.014011
1590	0.0126903
1602	0.0126903
1614	0.0142407
1626	0.0140684
1638	0.0175137
1650	0.0164227
1662	0.0165375
1674	0.0175137
1686	0.0204997
1698	0.0284239
1710	0.0387598
1722	0.0556993
1734	0.136722
1746	0.450016
1758	0.503074
1770	0.16905
1782	0.0763138
1794	0.0469712
1806	0.0295149
1818	0.0210739
1830	0.0154465
1842	0.0126328
1854	0.0101637
1866	0.00981916
1878	0.00890041
1890	0.00821135
1902	0.00775197
1914	0.00562736
1926	0.00689064
1938	0.00660353
1950	0.00683322
1962	0.00602931
1974	0.00545509
1986	0.0052254
1998	0.00465118
2010	0.00499571
2022	0.0052254
2034	0.00459376
2046	0.00453634
2058	0.00367501
2070	0.00453634
2082	0.00333048
2094	0.00275626
2106	0.00229688
2118	0.00178008
2130	0.00275626
2142	0.00172266
2154	0.00109102
2166	0.000689064
2178	0.000689064
2190	0.00137813
2202	0.0018375
2214	0.00229688
2226	0.0010336
2238	0.00160782
2250	0.00252657
2262	0.00258399
2274	0.00281368
2286	0.00206719
2298	0.00223946
2310	0.00218204
2322	0.00367501
2334	0.00407696
2346	0.00264141
2358	0
2370	0.00310079
2382	0.00424923
2394	0.00333048
2406	0.00281368
2418	0.00281368
2430	0.00310079
2442	0.00298594
2454	0.00327305
2466	0.00344532
2478	0.0023543
2490	0.00321563
2502	0.00350274
2514	0.00442149
2526	0.00453634
2538	0.00264141
2550	0.0028711
2562	0.00298594
2574	0.00396212
2586	0.00361759
2598	0.00298594
2610	0.00292852
2622	0.00241172
2634	0.00384727
2646	0.00356016
2658	0.00315821
2670	0.00292852
2682	0.00298594
2694	0.00350274
2706	0.00310079
2718	0.00333048
2730	0.00350274
2742	0.00447892
2754	0.00516798
2766	0.00413438
2778	0.00396212
2790	0.00258399
2802	0.00327305
2814	0.00534025
2826	0.00660353
2838	0.00867072
2850	0.00723517
2862	0.0104508
2874	0.0175137
2886	0.0348552
2898	0.0339364
2910	0.0304337
2922	0.0377837
2934	0.068447
2946	0.0904396
2958	0.0671263
2970	0.0645423
2982	0.191158
2994	0.18398
3006	0.061097
3018	0.0219926
3030	0.00981916
3042	0.00660353
3054	0.00327305
3066	0.00534025
3078	0.0047086
3090	0.00459376
3102	0.00373243
3114	0.00275626
3126	0.00476603
3138	0.00373243
3150	0.00562736
3162	0.00488087
3174	0.00419181
3186	0.00562736
3198	0.00505314
3210	0.00712033
3222	0.00482345
3234	0.00447892
3246	0.00459376
3258	0.00373243
3270	0.00591447
3282	0.00442149
3294	0.00551251
3306	0.0039047
3318	0.00488087
3330	0.00746486
3342	0.00442149
3354	0.00551251
3366	0.00344532
3378	0.00551251
3390	0.00585704
3402	0.00534025
3414	0.00666095
3426	0.00304337
3438	0.00453634
3450	0.00608673
3462	0.006259
3474	0.00872814
3486	0.00700548
3498	0.00700548
3510	0.00459376
3522	0.00551251
3534	0.00556993
3546	0.00310079
3558	0.00465118
3570	0.00631642
3582	0.0158485
3594	0.00637384
3606	0.00269883
3618	0.00367501
3630	0.00223946
3642	0.00419181
3654	0.00315821
3666	0.00321563
3678	0.00275626
3690	0.000631642
3702	0.00212461
3714	0.00166524
3726	0.000459376
3738	0.000803908
3750	5.7422e-05
3762	0.00166524
3774	0.000172266
3786	5.7422e-05
3798	5.7422e-05
3810	5.7422e-05
3822	0.000172266
3834	5.7422e-05
3846	5.7422e-05
3858	5.7422e-05
3870	5.7422e-05
3882	5.7422e-05
3894	5.7422e-05
3906	5.7422e-05
3918	5.7422e-05
3930	5.7422e-05
3942	5.7422e-05
3954	5.7422e-05
3966	5.7422e-05
