Infrared Spectrum: Diallyl succinate
Formula: C 10 H 14 O 4
CAS: 925-16-6
Origin: Sadtler Research Labs Under US-EPA Contract
1/CM	ABSORBANCE
450	0
462	0.00972208
474	0.024786
486	0.0257475
498	0.0106836
510	0.021474
522	0.0209399
534	0.0126066
546	0.0317303
558	0.0358969
570	0.0293799
582	0.0341875
594	0.035149
606	0.0409182
618	0.0400635
630	0.0323713
642	0.0255338
654	0.0224356
666	0.0205125
678	0.0166664
690	0.0138887
702	0.0122861
714	0.0127135
726	0.0102563
738	0.00673067
750	0.0112178
762	0.0091879
774	0.0105768
786	0.00876055
798	0.0150639
810	0.0188031
822	0.0225424
834	0.0305551
846	0.0340807
858	0.0326918
870	0.0352559
882	0.0340807
894	0.0367516
906	0.0573709
918	0.116344
930	0.211215
942	0.139314
954	0.0846141
966	0.101174
978	0.162177
990	0.33461
1002	0.274141
1014	0.212817
1026	0.165382
1038	0.117092
1050	0.0948704
1062	0.0842936
1074	0.0639948
1086	0.0627127
1098	0.0757467
1110	0.10064
1122	0.184078
1134	0.305124
1146	0.584072
1158	0.986951
1170	0.743044
1182	0.472536
1194	0.357046
1206	0.364952
1218	0.350956
1230	0.326704
1242	0.331726
1254	0.295295
1266	0.265487
1278	0.269868
1290	0.215275
1302	0.169549
1314	0.163352
1326	0.124998
1338	0.140703
1350	0.156194
1362	0.148502
1374	0.188993
1386	0.142733
1398	0.0835458
1410	0.0758536
1422	0.108652
1434	0.11346
1446	0.100426
1458	0.0880329
1470	0.0499992
1482	0.027991
1494	0.0207262
1506	0.0196578
1518	0.0180553
1530	0.0168801
1542	0.0168801
1554	0.0141024
1566	0.0139955
1578	0.0135682
1590	0.0134613
1602	0.0145297
1614	0.0157049
1626	0.0184826
1638	0.0263885
1650	0.0433754
1662	0.0303414
1674	0.0233971
1686	0.0258543
1698	0.033867
1710	0.0525633
1722	0.0838663
1734	0.149784
1746	0.429374
1758	1.03428
1770	0.702874
1782	0.248501
1794	0.122327
1806	0.0645289
1818	0.0405977
1830	0.0306619
1842	0.026068
1854	0.0251065
1866	0.0269227
1878	0.0210467
1890	0.0169869
1902	0.0145297
1914	0.0138887
1926	0.0134613
1938	0.0126066
1950	0.0121793
1962	0.0132477
1974	0.0141024
1986	0.0139955
1998	0.0141024
2010	0.0137818
2022	0.0133545
2034	0.0124998
2046	0.012393
2058	0.0118588
2070	0.0110041
2082	0.0107904
2094	0.0114315
2106	0.0114315
2118	0.0113246
2130	0.0108973
2142	0.0104699
2154	0.0100426
2166	0.00961524
2178	0.00961524
2190	0.0095084
2202	0.00961524
2214	0.00929473
2226	0.00929473
2238	0.0091879
2250	0.00886739
2262	0.00886739
2274	0.00844004
2286	0.00811954
2298	0.00758536
2310	0.00737168
2322	0.00833321
2334	0.00865372
2346	0.00758536
2358	0.0068375
2370	0.00833321
2382	0.0080127
2394	0.00886739
2406	0.00844004
2418	0.00811954
2430	0.00811954
2442	0.00811954
2454	0.00769219
2466	0.00705118
2478	0.00726485
2490	0.00715801
2502	0.006517
2514	0.006517
2526	0.00662383
2538	0.00673067
2550	0.00630332
2562	0.00598282
2574	0.0068375
2586	0.00747852
2598	0.00726485
2610	0.00758536
2622	0.00747852
2634	0.00769219
2646	0.00726485
2658	0.00587598
2670	0.0053418
2682	0.00491446
2694	0.00491446
2706	0.00576914
2718	0.00619649
2730	0.00608965
2742	0.00715801
2754	0.00758536
2766	0.00747852
2778	0.00673067
2790	0.00737168
2802	0.00822637
2814	0.00876055
2826	0.00972208
2838	0.0115383
2850	0.0120725
2862	0.0148502
2874	0.0192305
2886	0.0304483
2898	0.0365379
2910	0.0313029
2922	0.0370721
2934	0.0721143
2946	0.107798
2958	0.121259
2970	0.0767082
2982	0.0601487
2994	0.0671998
3006	0.0558752
3018	0.0411319
3030	0.0448711
3042	0.026068
3054	0.0190168
3066	0.0185895
3078	0.0291662
3090	0.0486104
3102	0.0603623
3114	0.028632
3126	0.0126066
3138	0.00982891
3150	0.00705118
3162	0.00619649
3174	0.00737168
3186	0.00576914
3198	0.00630332
3210	0.00630332
3222	0.00619649
3234	0.00544864
3246	0.00608965
3258	0.00587598
3270	0.0068375
3282	0.00641016
3294	0.0053418
3306	0.00608965
3318	0.00480762
3330	0.00502129
3342	0.00502129
3354	0.00630332
3366	0.00662383
3378	0.00715801
3390	0.00630332
3402	0.00694434
3414	0.00598282
3426	0.00758536
3438	0.00694434
3450	0.00608965
3462	0.00865372
3474	0.00833321
3486	0.0121793
3498	0.0162391
3510	0.013034
3522	0.0121793
3534	0.00972208
3546	0.00844004
3558	0.0112178
3570	0.0153844
3582	0.0304483
3594	0.0139955
3606	0.0102563
3618	0.0105768
3630	0.00982891
3642	0.00929473
3654	0.0115383
3666	0.0110041
3678	0.0116451
3690	0.011752
3702	0.0104699
3714	0.0113246
3726	0.0115383
3738	0.0100426
3750	0.0131408
3762	0.0113246
3774	0.0113246
3786	0.0115383
3798	0.0107904
3810	0.00993575
3822	0.0105768
3834	0.00972208
3846	0.00972208
3858	0.0120725
3870	0.00940157
3882	0.0126066
3894	0.0105768
3906	0.00940157
3918	0.00876055
3930	0.0121793
3942	0.0133545
3954	0.00993575
3966	0.0116451
