Infrared Spectrum: Butanedioic acid, dipropyl ester
Formula: C 10 H 18 O 4
CAS: 925-15-5
Origin: Sadtler Research Labs Under US-EPA Contract
1/CM	ABSORBANCE
450	0.00295357
462	0
474	0.0144134
486	0.0238649
498	0.0128776
510	0.0133502
522	0.00697044
534	0.0217383
546	0.0237467
558	0.0236286
570	0.0243375
582	0.021502
594	0.022329
606	0.0228016
618	0.0242193
630	0.0270547
642	0.0334345
654	0.0265822
666	0.0158312
678	0.014886
690	0.00874258
702	0.0133502
714	0.00661601
726	0.00827001
738	0.0194936
750	0.00602529
762	0.0147679
774	0.0145316
786	0.019021
798	0.0129957
810	0.019021
822	0.0211476
834	0.031426
846	0.0329619
858	0.035561
870	0.0350885
882	0.0360336
894	0.0451306
906	0.0547002
918	0.0536369
930	0.0499745
942	0.0602529
954	0.0767929
966	0.108692
978	0.149451
990	0.176624
1002	0.149451
1014	0.101721
1026	0.0927423
1038	0.110227
1050	0.147088
1062	0.19789
1074	0.131139
1086	0.0756115
1098	0.081755
1110	0.113535
1122	0.181468
1134	0.290868
1146	0.54204
1158	0.954477
1170	0.85252
1182	0.558108
1194	0.419998
1206	0.415273
1218	0.409247
1230	0.376049
1242	0.386918
1254	0.36518
1266	0.342024
1278	0.30859
1290	0.258969
1302	0.198598
1314	0.197299
1326	0.171544
1338	0.164455
1350	0.213957
1362	0.190092
1374	0.127594
1386	0.129603
1398	0.128421
1410	0.0810461
1422	0.0992401
1434	0.10432
1446	0.0995945
1458	0.0959321
1470	0.108928
1482	0.0701769
1494	0.0356792
1506	0.0265822
1518	0.0218565
1530	0.0178396
1542	0.0126413
1554	0.0131139
1566	0.0126413
1578	0.0135864
1590	0.00992401
1602	0.0114599
1614	0.0138227
1626	0.0145316
1638	0.01654
1650	0.015713
1662	0.0150042
1674	0.0226835
1686	0.0261096
1698	0.039696
1710	0.0691137
1722	0.111409
1734	0.213366
1746	0.662664
1758	1.18143
1770	0.577365
1782	0.193164
1794	0.0927423
1806	0.0506833
1818	0.0337889
1830	0.0261096
1842	0.0186666
1854	0.0141772
1866	0.0131139
1878	0.012405
1890	0.0128776
1902	0.0122869
1914	0.00992401
1926	0.010751
1938	0.010751
1950	0.0102784
1962	0.00992401
1974	0.00992401
1986	0.00956958
1998	0.0100422
2010	0.0101603
2022	0.0101603
2034	0.010751
2046	0.0102784
2058	0.0101603
2070	0.0102784
2082	0.00992401
2094	0.00945144
2106	0.00886072
2118	0.00791558
2130	0.00744301
2142	0.00685229
2154	0.00649787
2166	0.00567086
2178	0.00555272
2190	0.00567086
2202	0.00626158
2214	0.00614344
2226	0.00543458
2238	0.00531643
2250	0.00496201
2262	0.00508015
2274	0.00460758
2286	0.00496201
2298	0.00508015
2310	0.00661601
2322	0.00756115
2334	0.00732487
2346	0.0111054
2358	0.00602529
2370	0.00815187
2382	0.00602529
2394	0.00460758
2406	0.00437129
2418	0.00448943
2430	0.00448943
2442	0.00425315
2454	0.00366243
2466	0.00295357
2478	0.00259915
2490	0.00271729
2502	0.00307172
2514	0.00283543
2526	0.00224472
2538	0.00189029
2550	0.00224472
2562	0.00271729
2574	0.002481
2586	0.00318986
2598	0.003308
2610	0.00307172
2622	0.00342615
2634	0.00342615
2646	0.00318986
2658	0.00342615
2670	0.00342615
2682	0.00448943
2694	0.00496201
2706	0.00508015
2718	0.00590715
2730	0.00685229
2742	0.00897887
2754	0.0106329
2766	0.010751
2778	0.0105147
2790	0.0100422
2802	0.0108692
2814	0.0131139
2826	0.0170126
2838	0.0204387
2850	0.0263459
2862	0.0435948
2874	0.0680504
2886	0.117198
2898	0.143662
2910	0.120624
2922	0.12724
2934	0.21443
2946	0.266412
2958	0.291695
2970	0.371914
2982	0.429568
2994	0.215847
3006	0.0876621
3018	0.0456032
3030	0.0292995
3042	0.022329
3054	0.0183122
3066	0.0159493
3078	0.0138227
3090	0.0125232
3102	0.011578
3114	0.0108692
3126	0.0101603
3138	0.00897887
3150	0.00838815
3162	0.0085063
3174	0.00886072
3186	0.00886072
3198	0.0076793
3210	0.00685229
3222	0.00732487
3234	0.00673415
3246	0.00614344
3258	0.00661601
3270	0.00614344
3282	0.00578901
3294	0.00614344
3306	0.00626158
3318	0.00697044
3330	0.00614344
3342	0.00614344
3354	0.00626158
3366	0.00685229
3378	0.00661601
3390	0.00697044
3402	0.00649787
3414	0.00744301
3426	0.00708858
3438	0.00697044
3450	0.00744301
3462	0.00791558
3474	0.0101603
3486	0.0146497
3498	0.0172489
3510	0.0111054
3522	0.0076793
3534	0.00803372
3546	0.00732487
3558	0.00555272
3570	0.0106329
3582	0.014059
3594	0.0085063
3606	0.00827001
3618	0.00685229
3630	0.0085063
3642	0.00637972
3654	0.0076793
3666	0.0118143
3678	0.00448943
3690	0.00578901
3702	0.0093333
3714	0.00779744
3726	0.00508015
3738	0.00614344
3750	0.0120506
3762	0.00720672
3774	0.00661601
3786	0.0103966
3798	0.0093333
3810	0.0125232
3822	0.00791558
3834	0.011578
3846	0.010751
3858	0.00827001
3870	0.00980587
3882	0.0118143
3894	0.00838815
3906	0.00779744
3918	0.0112236
3930	0.00945144
3942	0.0112236
3954	0.0120506
3966	0.0128776
