Infrared Spectrum: 3-Hexen-1-ol, (Z)-
Formula: C 6 H 12 O
CAS: 928-96-1
Origin: Sadtler Research Labs Under US-EPA Contract
1/CM	ABSORBANCE
450	0.0216789
462	0.0205292
474	0.0110037
486	0.00960769
498	0.014042
510	0.0178194
522	0.0110037
534	0.0119891
546	0.0136314
558	0.0177373
570	0.025292
582	0.0339143
594	0.0293979
606	0.0219252
618	0.0130566
630	0.00927922
642	0.0128924
654	0.018969
666	0.0291515
678	0.0459855
690	0.0772721
702	0.122601
714	0.142884
726	0.120794
738	0.0810495
750	0.0469709
762	0.0275913
774	0.020365
786	0.0221716
798	0.0258669
810	0.0230749
822	0.0240603
834	0.0271807
846	0.0325183
858	0.0571534
870	0.0747265
882	0.0635586
894	0.0596169
906	0.0468067
918	0.0276734
930	0.0206935
942	0.0235676
954	0.0368705
966	0.0599454
978	0.0823634
990	0.103796
1002	0.144772
1014	0.19084
1026	0.270822
1038	0.504034
1050	0.689701
1062	0.521114
1074	0.283386
1086	0.133522
1098	0.0731662
1110	0.0541972
1122	0.0466425
1134	0.0440968
1146	0.0453286
1158	0.0532118
1170	0.0674181
1182	0.0763688
1194	0.073002
1206	0.0688962
1218	0.0674181
1230	0.0670075
1242	0.0633943
1254	0.0606023
1266	0.0639691
1278	0.0679929
1290	0.0755476
1302	0.0924637
1314	0.0910678
1326	0.0647903
1338	0.0612593
1350	0.0646261
1362	0.0808852
1374	0.139845
1386	0.180411
1398	0.145347
1410	0.0991152
1422	0.0730841
1434	0.0742338
1446	0.0865513
1458	0.101825
1470	0.101989
1482	0.0753834
1494	0.0381844
1506	0.0194617
1518	0.0100183
1530	0.0053376
1542	0.00394162
1554	0.00377738
1566	0.00114964
1578	0.00517337
1590	0.00229928
1602	0.00229928
1614	0.00500914
1626	0.00583031
1638	0.0136314
1650	0.0194617
1662	0.0209398
1674	0.0174909
1686	0.0186406
1698	0.0146989
1710	0.0101825
1722	0.00952557
1734	0.00755476
1746	0.00944345
1758	0.012646
1770	0.01125
1782	0.00599454
1794	0.00312045
1806	0.00254563
1818	0.00147811
1830	0.00123175
1842	0.00188869
1854	0.00106752
1866	0.000739053
1878	0.00106752
1890	0.00213504
1902	0.00238139
1914	0.00344891
1926	0.00394162
1938	0.00344891
1950	0.00361315
1962	0.0033668
1974	0.0033668
1986	0.00320256
1998	0.00369527
2010	0.00418797
2022	0.00558396
2034	0.00780111
2046	0.00903287
2058	0.00911499
2070	0.00886864
2082	0.00747265
2094	0.00673359
2106	0.00665148
2118	0.00640513
2130	0.00541972
2142	0.00574819
2154	0.00550184
2166	0.00558396
2178	0.00591242
2190	0.00583031
2202	0.00591242
2214	0.00599454
2226	0.00673359
2238	0.00755476
2250	0.00755476
2262	0.007719
2274	0.00755476
2286	0.00583031
2298	0.00295621
2310	0.000246351
2322	0.00221716
2334	0.00558396
2346	0.00361315
2358	0.00361315
2370	0.00804747
2382	0.00706206
2394	0.0100183
2406	0.00977192
2418	0.0101004
2430	0.010511
2442	0.0103467
2454	0.0101825
2466	0.00895075
2478	0.00952557
2490	0.00952557
2502	0.00895075
2514	0.00936134
2526	0.00968981
2538	0.0091971
2550	0.0091971
2562	0.00911499
2574	0.00985404
2586	0.00977192
2598	0.0101004
2610	0.0108394
2622	0.0110037
2634	0.0114143
2646	0.0124818
2658	0.0134672
2670	0.0135493
2682	0.016177
2694	0.0179836
2706	0.0213504
2718	0.0247993
2730	0.0303833
2742	0.0333395
2754	0.0356388
2766	0.0366242
2778	0.0389235
2790	0.0411406
2802	0.0450822
2814	0.0541151
2826	0.0732484
2838	0.107655
2850	0.171871
2862	0.290119
2874	0.445567
2886	0.557574
2898	0.519883
2910	0.482027
2922	0.506251
2934	0.560613
2946	0.63033
2958	0.665394
2970	0.819281
2982	0.697009
2994	0.36772
3006	0.322884
3018	0.352282
3030	0.249554
3042	0.108066
3054	0.0460676
3066	0.0320256
3078	0.0283304
3090	0.021761
3102	0.0171625
3114	0.014042
3126	0.0135493
3138	0.0116606
3150	0.0123176
3162	0.0108394
3174	0.0104289
3186	0.00944345
3198	0.00780111
3210	0.00607666
3222	0.00509125
3234	0.00328468
3246	0.00262774
3258	0.0043522
3270	0.00410585
3282	0.0033668
3294	0.00476279
3306	0.00262774
3318	0.00320256
3330	0.00270986
3342	0.00254563
3354	0.00156022
3366	0.00156022
3378	0.00164234
3390	0.00213504
3402	0.00229928
3414	0.00344891
3426	0.0033668
3438	0.00270986
3450	0.0033668
3462	0.00312045
3474	0.00500914
3486	0.00459855
3498	0.00205293
3510	0.00369527
3522	0.00197081
3534	0.000903287
3546	0.00295621
3558	0.00344891
3570	0.00238139
3582	0.00763688
3594	0.00730841
3606	0.0174909
3618	0.0436041
3630	0.0531297
3642	0.0476279
3654	0.0688962
3666	0.100183
3678	0.0867156
3690	0.0391698
3702	0.0151916
3714	0.00739053
3726	0.00854017
3738	0.00295621
3750	0.00697995
3762	0.00500914
3774	0.00377738
3786	0.00180657
3798	0.00205293
3810	0.00123175
3822	0.000739053
3834	0.00262774
3846	0.000903287
3858	0.0038595
3870	0.000492702
3882	0.000246351
3894	0.000985404
3906	0.00353103
3918	0.000246351
3930	0.00410585
3942	0.000164234
3954	0.0043522
3966	0.000739053
