Infrared Spectrum: 2-Hexen-1-ol, (E)-
Formula: C 6 H 12 O
CAS: 928-95-0
Origin: Sadtler Research Labs Under US-EPA Contract
1/CM	ABSORBANCE
450	0.0583904
462	0.0249525
474	0.00403272
486	0.0128543
498	0.0123502
510	0.0257086
522	0.0144506
534	0.00882157
546	0.00201636
558	0.00739332
570	0.00856953
582	0.0132744
594	0.00739332
606	0.00638514
618	0.0107539
630	0.0105859
642	0.0164669
654	0.0107539
666	0.00949369
678	0.00966172
690	0.00756135
702	0.0126023
714	0.011426
726	0.0137785
738	0.0139465
750	0.0203316
762	0.0220959
774	0.0210878
786	0.0201636
798	0.0183993
810	0.0140305
822	0.0131063
834	0.0144506
846	0.0194915
858	0.0241123
870	0.0286491
882	0.0352863
894	0.0418395
906	0.0536856
918	0.0751934
930	0.0967853
942	0.137365
954	0.24398
966	0.40428
978	0.479474
990	0.43923
1002	0.417303
1014	0.364793
1026	0.304302
1038	0.262463
1050	0.235494
1062	0.184245
1074	0.180968
1086	0.206509
1098	0.175675
1110	0.115689
1122	0.0845191
1134	0.0778819
1146	0.072673
1158	0.072589
1170	0.0808224
1182	0.0863674
1194	0.0845191
1206	0.0822507
1218	0.0811585
1230	0.0757815
1242	0.06696
1254	0.0658678
1266	0.0694804
1278	0.0691443
1290	0.0696484
1302	0.0735971
1314	0.0768737
1326	0.0821667
1338	0.0995578
1350	0.109219
1362	0.13644
1374	0.221211
1386	0.274393
1398	0.194747
1410	0.109808
1422	0.0749414
1434	0.0762856
1446	0.0979615
1458	0.121654
1470	0.113252
1482	0.0687243
1494	0.0340261
1506	0.0195755
1518	0.0127703
1530	0.00924165
1542	0.00714127
1554	0.00663719
1566	0.00520893
1578	0.00403272
1590	0.00478885
1602	0.00428477
1614	0.00445279
1626	0.00562901
1638	0.00747733
1650	0.0131063
1662	0.0331859
1674	0.0429317
1686	0.0157108
1698	0.00949369
1710	0.0201636
1722	0.0232722
1734	0.016719
1746	0.0259606
1758	0.0227681
1770	0.016635
1782	0.0121822
1794	0.00940968
1806	0.00772938
1818	0.00453681
1830	0.00285651
1842	0.00252045
1854	0.00226841
1866	0.00184833
1878	0.00100818
1890	0.00142826
1902	0.00159629
1914	0.00142826
1926	0.00100818
1938	0.00100818
1950	0.00193235
1962	0.00243643
1974	0.00344461
1986	0.00445279
1998	0.00487287
2010	0.00520893
2022	0.0050409
2034	0.00537696
2046	0.00428477
2058	0.00344461
2070	0.00285651
2082	0.00310855
2094	0.00235242
2106	0.00151227
2118	0.00067212
2130	0.000924165
2142	0.00100818
2154	0.0010922
2166	0.00084015
2178	0.00126023
2190	0.00117621
2202	0.00100818
2214	0.000924165
2226	0.000756135
2238	0.00134424
2250	0.00184833
2262	0.0016803
2274	0.00210037
2286	0.00235242
2298	0.00252045
2310	0.00184833
2322	0.00016803
2334	0.00016803
2346	0.00218439
2358	0.000756135
2370	0.00495689
2382	0.00646915
2394	0.00478885
2406	0.00378067
2418	0.00386469
2430	0.0033606
2442	0.00302454
2454	0.00310855
2466	0.00369666
2478	0.00361265
2490	0.00352863
2502	0.00428477
2514	0.00453681
2526	0.00428477
2538	0.0050409
2550	0.00596507
2562	0.00554499
2574	0.00621711
2586	0.00697325
2598	0.00756135
2610	0.00798143
2622	0.00873756
2634	0.00924165
2646	0.00991377
2658	0.0116781
2670	0.0147866
2682	0.0161309
2694	0.0171391
2706	0.0194075
2718	0.0204997
2730	0.022516
2742	0.0271368
2754	0.0286491
2766	0.0298253
2778	0.0331019
2790	0.039319
2802	0.0462923
2814	0.0548618
2826	0.0772098
2838	0.131988
2850	0.237426
2862	0.372186
2874	0.522405
2886	0.566933
2898	0.464435
2910	0.48065
2922	0.609193
2934	0.781508
2946	0.809989
2958	0.707574
2970	0.828388
2982	0.621963
2994	0.276241
3006	0.188026
3018	0.163325
3030	0.142321
3042	0.106447
3054	0.0683042
3066	0.0430997
3078	0.0299093
3090	0.0238603
3102	0.0187353
3114	0.016635
3126	0.0142825
3138	0.0121822
3150	0.0106699
3162	0.00856953
3174	0.00730931
3186	0.00772938
3198	0.00747733
3210	0.00621711
3222	0.00378067
3234	0.00310855
3246	0.00260447
3258	0.00159629
3270	0.00067212
3282	0.000252045
3294	0.00226841
3306	0.00142826
3318	0.00117621
3330	0.00201636
3342	0.00420075
3354	0.00218439
3366	0.00411673
3378	0.0050409
3390	0.00579703
3402	0.00394871
3414	0.00562901
3426	0.00646915
3438	0.00546097
3450	0.00529295
3462	0.00638514
3474	0.00638514
3486	0.00596507
3498	0.00680521
3510	0.00462083
3522	0.00562901
3534	0.00705726
3546	0.00663719
3558	0.00814945
3570	0.00890559
3582	0.00966172
3594	0.0106699
3606	0.0115941
3618	0.0190714
3630	0.0321777
3642	0.0620031
3654	0.0889719
3666	0.10359
3678	0.0678001
3690	0.0325138
3702	0.0173911
3714	0.0154588
3726	0.00873756
3738	0.00806544
3750	0.0067212
3762	0.00814945
3774	0.00722529
3786	0.00789741
3798	0.00621711
3810	0.00823347
3822	0.00882157
3834	0.00957771
3846	0.0115941
3858	0.00772938
3870	0.01109
3882	0.00940968
3894	0.0103338
3906	0.0102498
3918	0.00798143
3930	0.0084015
3942	0.00806544
3954	0.00277249
3966	0.00378067
