Infrared Spectrum: 2-Naphthalenecarboxylic acid
Formula: C 11 H 8 O 2
CAS: 93-09-4
Origin: Sadtler Research Labs Under US-EPA Contract
1/CM	ABSORBANCE
450	0
462	0.0432484
474	0.0765091
486	0.0342029
498	0.0309051
510	0.0293034
522	0.0319416
534	0.05154
546	0.0720806
558	0.10242
570	0.142277
582	0.136152
594	0.0474884
606	0.021106
618	0.0406101
630	0.0527649
642	0.0195042
654	0.0124374
666	0.0119663
678	0.0191273
690	0.040139
702	0.102703
714	0.0922443
726	0.0184677
738	0.0215771
750	0.0660503
762	0.130499
774	0.163854
786	0.124374
798	0.0438137
810	0.0368412
822	0.0456039
834	0.022802
846	0.0182793
858	0.0335434
870	0.0320358
882	0.0146046
894	0.0131912
906	0.0282669
918	0.0286438
930	0.0157352
942	0.0260055
954	0.0377834
966	0.0182793
978	0.013097
990	0.0157352
1002	0.0179966
1014	0.0241211
1026	0.0252518
1038	0.021954
1050	0.0377834
1062	0.141146
1074	0.197303
1086	0.144538
1098	0.0594547
1110	0.0603969
1122	0.195607
1134	0.30255
1146	0.184866
1158	0.336093
1170	0.295483
1182	0.189859
1194	0.112691
1206	0.0735882
1218	0.0503151
1230	0.0375008
1242	0.0397621
1254	0.0436252
1266	0.0471115
1278	0.054932
1290	0.0749073
1302	0.0748131
1314	0.0878158
1326	0.120511
1338	0.102138
1350	0.0928097
1362	0.142936
1374	0.116837
1386	0.0766033
1398	0.0320358
1410	0.0203522
1422	0.0193157
1434	0.0291149
1446	0.0240269
1458	0.0342972
1470	0.0517284
1482	0.0314705
1494	0.0234615
1506	0.0339203
1518	0.0277016
1530	0.0260055
1542	0.0371239
1554	0.0322243
1566	0.0230846
1578	0.0235558
1590	0.0258171
1602	0.0314705
1614	0.0207291
1626	0.0427772
1638	0.048148
1650	0.0224251
1662	0.0188446
1674	0.0232731
1686	0.0267593
1698	0.0428715
1710	0.0541782
1722	0.0543667
1734	0.0826336
1746	0.248466
1758	0.891255
1770	0.461222
1782	0.0795242
1794	0.0464519
1806	0.0425888
1818	0.0447559
1830	0.0300571
1842	0.0205406
1854	0.0157352
1866	0.0165832
1878	0.0143219
1890	0.0155468
1902	0.0145103
1914	0.0201637
1926	0.0227077
1938	0.0182793
1950	0.0187504
1962	0.0132854
1974	0.0108356
1986	0.011401
1998	0.0114952
2010	0.0112125
2022	0.0125317
2034	0.0121548
2046	0.0117779
2058	0.011401
2070	0.0112125
2082	0.0121548
2094	0.012249
2106	0.0110241
2118	0.0118721
2130	0.0126259
2142	0.0118721
2154	0.0112125
2166	0.0114952
2178	0.0114952
2190	0.0116837
2202	0.0114952
2214	0.0113068
2226	0.0119663
2238	0.0118721
2250	0.0113068
2262	0.0114952
2274	0.0123432
2286	0.0137566
2298	0.0151699
2310	0.0150757
2322	0.0144161
2334	0.014793
2346	0.0142277
2358	0.0140392
2370	0.0137566
2382	0.0136623
2394	0.0127201
2406	0.0124374
2418	0.0123432
2430	0.0128143
2442	0.0119663
2454	0.0119663
2466	0.012249
2478	0.0116837
2490	0.0118721
2502	0.0124374
2514	0.0118721
2526	0.0115894
2538	0.0116837
2550	0.0112125
2562	0.0113068
2574	0.0111183
2586	0.0113068
2598	0.011401
2610	0.0115894
2622	0.0115894
2634	0.0114952
2646	0.0115894
2658	0.0115894
2670	0.0119663
2682	0.0115894
2694	0.0113068
2706	0.0118721
2718	0.0116837
2730	0.0118721
2742	0.0119663
2754	0.0115894
2766	0.0115894
2778	0.0121548
2790	0.0121548
2802	0.0121548
2814	0.0114952
2826	0.0126259
2838	0.0127201
2850	0.0125317
2862	0.0120605
2874	0.0128143
2886	0.0130028
2898	0.0132854
2910	0.0134739
2922	0.0140392
2934	0.0146988
2946	0.0155468
2958	0.0160179
2970	0.0171486
2982	0.0166775
2994	0.0162064
3006	0.0171486
3018	0.0225193
3030	0.0291149
3042	0.0346741
3054	0.0534244
3066	0.10487
3078	0.0858372
3090	0.0438137
3102	0.021954
3114	0.0163948
3126	0.0144161
3138	0.0135681
3150	0.0141334
3162	0.0130028
3174	0.0124374
3186	0.0123432
3198	0.0116837
3210	0.0126259
3222	0.0124374
3234	0.0130028
3246	0.0123432
3258	0.0117779
3270	0.012249
3282	0.0115894
3294	0.0113068
3306	0.011401
3318	0.0120605
3330	0.0113068
3342	0.0124374
3354	0.0124374
3366	0.0123432
3378	0.0119663
3390	0.0133797
3402	0.0119663
3414	0.0120605
3426	0.0125317
3438	0.0118721
3450	0.0124374
3462	0.0119663
3474	0.0127201
3486	0.0133797
3498	0.0171486
3510	0.0146988
3522	0.0126259
3534	0.0125317
3546	0.014793
3558	0.0149815
3570	0.0470173
3582	0.301231
3594	0.154903
3606	0.0165832
3618	0.013945
3630	0.0169601
3642	0.0144161
3654	0.0165832
3666	0.0155468
3678	0.0129086
3690	0.0145103
3702	0.013097
3714	0.0115894
3726	0.0140392
3738	0.0140392
3750	0.0119663
3762	0.0126259
3774	0.0132854
3786	0.0121548
3798	0.0144161
3810	0.0124374
3822	0.012249
3834	0.0133797
3846	0.0112125
3858	0.0129086
3870	0.012249
3882	0.0114952
3894	0.0126259
3906	0.0159237
3918	0.0129086
3930	0.0132854
3942	0.0125317
3954	0.0130028
3966	0.0145103
