Infrared Spectrum: 2-Naphthyl methyl ketone
Formula: C 12 H 10 O
CAS: 93-08-3
Origin: Sadtler Research Labs Under US-EPA Contract
1/CM	ABSORBANCE
450	0.0461799
462	0.0709162
474	0.0847617
486	0.0296328
498	0.0045589
510	0.0112284
522	0.012748
534	0.0159561
546	0.058928
558	0.0514986
570	0.0684679
582	0.0545379
594	0.00101309
606	0.0193331
618	0.0108063
630	0.0081047
642	0.018911
654	0.0665261
666	0.0824822
678	0.00920222
690	0.0113972
702	0.00641622
714	0.0110595
726	0.0485438
738	0.167413
750	0.125032
762	0.0247362
774	0.0112284
786	0.0227945
798	0.0506544
810	0.143943
822	0.126467
834	0.0409456
846	0.0742931
858	0.125116
870	0.0414522
882	0.0239764
894	0.0341073
906	0.0271845
918	0.0293796
930	0.0590968
942	0.110089
954	0.049979
966	0.0417899
978	0.034445
990	0.0198396
1002	0.0166315
1014	0.0359646
1026	0.0353737
1038	0.0130013
1050	0.0135923
1062	0.0171381
1074	0.0171381
1086	0.0173913
1098	0.0135923
1110	0.0158717
1122	0.0528494
1134	0.111777
1146	0.0501479
1158	0.0496413
1170	0.0318278
1182	0.112453
1194	0.251584
1206	0.122246
1218	0.240524
1230	0.254623
1242	0.122499
1254	0.130857
1266	0.350951
1278	0.422542
1290	0.179063
1302	0.037231
1314	0.0287886
1326	0.0311525
1338	0.0439849
1350	0.0978474
1362	0.271339
1374	0.24255
1386	0.0875477
1398	0.0445759
1410	0.037231
1422	0.0500634
1434	0.0792741
1446	0.0654286
1458	0.0649221
1470	0.112115
1482	0.0374843
1494	0.0317434
1506	0.0441538
1518	0.0410301
1530	0.0389195
1542	0.0407768
1554	0.0513298
1566	0.058337
1578	0.0651753
1590	0.0715916
1602	0.0778389
1614	0.0576616
1626	0.107134
1638	0.095568
1650	0.0560575
1662	0.0672015
1674	0.0809626
1686	0.182862
1698	0.721403
1710	0.619334
1722	0.126298
1734	0.0534404
1746	0.0548756
1758	0.0327565
1770	0.0180667
1782	0.0169692
1794	0.0181512
1806	0.0146054
1818	0.0126636
1830	0.0132546
1842	0.00726046
1854	0.0059941
1866	0.00827355
1878	0.00692277
1890	0.00861125
1902	0.012748
1914	0.01393
1926	0.015534
1938	0.0157029
1950	0.0173913
1962	0.00506544
1974	0.0024483
1986	0.00329254
1998	0.00363023
2010	0.00287042
2022	0.00346138
2034	0.00303926
2046	0.00312369
2058	0.00160406
2070	0.00185733
2082	0.00236387
2094	0.00194175
2106	0.00168848
2118	0.00168848
2130	0.00227945
2142	0.0017729
2154	0.00084424
2166	0.00160406
2178	0.00168848
2190	0.000759816
2202	0.00185733
2214	0.0021106
2226	0.00168848
2238	0.00168848
2250	0.00185733
2262	0.00219502
2274	0.00295484
2286	0.00616295
2298	0.00734489
2310	0.00734489
2322	0.00447447
2334	0.00489659
2346	0.00270157
2358	0.00270157
2370	0.00514986
2382	0.00329254
2394	0.00101309
2406	0.00168848
2418	0.00135078
2430	0.00109751
2442	0.000759816
2454	0.00160406
2466	0.00118194
2478	0.00194175
2490	0.00185733
2502	0.00151963
2514	0.00160406
2526	0.00109751
2538	0.00126636
2550	0.00109751
2562	0.000928664
2574	0.000590968
2586	0.000928664
2598	0.00084424
2610	0.00143521
2622	0.000928664
2634	0.00168848
2646	0.00194175
2658	0.00194175
2670	0.00143521
2682	0.00143521
2694	0.00168848
2706	0.00185733
2718	0.000759816
2730	0.00236387
2742	0.00160406
2754	0.000928664
2766	0.0017729
2778	0.00084424
2790	0.00320811
2802	0.00261714
2814	0.00439005
2826	0.00700719
2838	0.0120726
2850	0.0260026
2862	0.0262559
2874	0.0187421
2886	0.0185733
2898	0.026087
2910	0.0371466
2922	0.0613762
2934	0.0650909
2946	0.0402702
2958	0.0341073
2970	0.0358802
2982	0.0315746
2994	0.0249051
3006	0.0381596
3018	0.0620516
3030	0.0563108
3042	0.0551289
3054	0.103504
3066	0.217139
3078	0.159477
3090	0.0672859
3102	0.0264247
3114	0.0150275
3126	0.0107218
3138	0.00928664
3150	0.00742931
3162	0.0059941
3174	0.00557198
3186	0.00464332
3198	0.0059941
3210	0.00523429
3222	0.00540314
3234	0.00557198
3246	0.00472774
3258	0.00540314
3270	0.00506544
3282	0.0059941
3294	0.00726046
3306	0.00650065
3318	0.00624738
3330	0.00818913
3342	0.00641622
3354	0.0087801
3366	0.0084424
3378	0.0150275
3390	0.0188266
3402	0.010553
3414	0.0063318
3426	0.00506544
3438	0.00506544
3450	0.00514986
3462	0.00337696
3474	0.00185733
3486	0.00278599
3498	0.00135078
3510	0.000928664
3522	0.00118194
3534	0.00118194
3546	0.00109751
3558	0.00109751
3570	0.000759816
3582	0.0024483
3594	0.00143521
3606	0.00126636
3618	0
3630	0.00042212
3642	0.00379908
3654	0.00236387
3666	0.00227945
3678	0.00194175
3690	0.00270157
3702	0.00168848
3714	0.00135078
3726	0.00337696
3738	0.0045589
3750	0.0024483
3762	0.00312369
3774	0.00413678
3786	0.00261714
3798	0.00582526
3810	0.0038835
3822	0.00405235
3834	0.0045589
3846	0.00363023
3858	0.00439005
3870	0.00574083
3882	0.00650065
3894	0.00506544
3906	0.00557198
3918	0.00759816
3930	0.00776701
3942	0.00498102
3954	0.00413678
3966	0.0045589
