Infrared Spectrum: Naphthalene, 2-methoxy-
Formula: C 11 H 10 O
CAS: 93-04-9
Origin: Sadtler Research Labs Under US-EPA Contract
1/CM	ABSORBANCE
450	0.0807288
462	0.0990974
474	0.0826588
486	0.0382014
498	0.030814
510	0.0248243
522	0.0260222
534	0.0307475
546	0.0248908
558	0.0283516
570	0.0216963
582	0.0279523
594	0.0202987
606	0.0292833
618	0.0780001
630	0.0454557
642	0.0274864
654	0.0243584
666	0.0210307
678	0.0240922
690	0.0518448
702	0.0660871
714	0.0375359
726	0.0785991
738	0.186947
750	0.14076
762	0.0404642
774	0.0250239
786	0.023227
798	0.0549728
810	0.0680172
822	0.0940394
834	0.236197
846	0.169644
858	0.0720103
870	0.0531093
882	0.0493823
894	0.0648226
906	0.0475854
918	0.0312134
930	0.0400649
942	0.0475854
954	0.0624267
966	0.0363379
978	0.0270205
990	0.0264881
1002	0.0262884
1014	0.0605632
1026	0.108215
1038	0.196731
1050	0.123456
1062	0.0246912
1074	0.00858534
1086	0.000465871
1098	0.00612288
1110	0.0440581
1122	0.175367
1134	0.0952373
1146	0.0712117
1158	0.169244
1170	0.357323
1182	0.186082
1194	0.0867186
1206	0.193004
1218	0.476386
1230	0.195267
1242	0.153471
1254	0.477717
1266	0.591457
1278	0.224217
1290	0.067152
1302	0.0410632
1314	0.0400649
1326	0.0477185
1338	0.0644233
1350	0.0896469
1362	0.103157
1374	0.0917766
1386	0.163587
1398	0.129379
1410	0.0523772
1422	0.0454557
1434	0.0882493
1446	0.170109
1458	0.137166
1470	0.284048
1482	0.244383
1494	0.110944
1506	0.238659
1518	0.18322
1530	0.0390001
1542	0.0371366
1554	0.0372697
1566	0.0547066
1578	0.0969012
1590	0.16219
1602	0.283782
1614	0.154869
1626	0.268475
1638	0.348405
1650	0.0951708
1662	0.0482509
1674	0.0425274
1686	0.0373362
1698	0.0329437
1710	0.0278192
1722	0.0248243
1734	0.0268209
1746	0.0242918
1758	0.0247577
1770	0.0258226
1782	0.0226946
1794	0.0201656
1806	0.0203652
1818	0.0240922
1830	0.0194335
1842	0.0159062
1854	0.0134437
1866	0.0165051
1878	0.0202321
1890	0.023826
1902	0.0280188
1914	0.027686
1926	0.0232935
1938	0.0235598
1950	0.0166383
1962	0.0143089
1974	0.0139761
1986	0.0109812
1998	0.00998295
2010	0.0121126
2022	0.0116468
2034	0.0129113
2046	0.0137099
2058	0.0167048
2070	0.0182355
2082	0.0160393
2094	0.0111144
2106	0.00971674
2118	0.0108481
2130	0.00925087
2142	0.0111809
2154	0.0128447
2166	0.0129778
2178	0.0109812
2190	0.00871844
2202	0.0099164
2214	0.00838568
2226	0.0077867
2238	0.00638909
2250	0.00738738
2262	0.00752049
2274	0.00738738
2286	0.0089181
2298	0.00925087
2310	0.0117133
2322	0.0117133
2334	0.0133772
2346	0.0118464
2358	0.0143089
2370	0.0134437
2382	0.0101161
2394	0.00851878
2406	0.00638909
2418	0.0089181
2430	0.00718772
2442	0.00638909
2454	0.0045256
2466	0.00559045
2478	0.00579011
2490	0.00472526
2502	0.005657
2514	0.00246246
2526	0.00465871
2538	0.00352731
2550	0.00366041
2562	0.00366041
2574	0.00405973
2586	0.00539079
2598	0.00585666
2610	0.00705462
2622	0.00499147
2634	0.00445905
2646	0.0045256
2658	0.00366041
2670	0.00266212
2682	0.00119795
2694	0.00239591
2706	0.00119795
2718	0.00232935
2730	0.00312799
2742	0.00419284
2754	0.00412629
2766	0.00332765
2778	0.00499147
2790	0.00658875
2802	0.0101826
2814	0.0147082
2826	0.0298157
2838	0.0616281
2850	0.0833244
2862	0.040797
2874	0.0261553
2886	0.0347407
2898	0.0487168
2910	0.0606963
2922	0.0718107
2934	0.0813943
2946	0.139628
2958	0.138097
2970	0.0763363
2982	0.0545735
2994	0.0668192
3006	0.148413
3018	0.123123
3030	0.0857868
3042	0.083524
3054	0.149877
3066	0.245714
3078	0.162456
3090	0.0777339
3102	0.0407304
3114	0.0139761
3126	0.00905121
3138	0.00618943
3150	0.00605632
3162	0.00572356
3174	0.00505803
3186	0.0043925
3198	0.00412629
3210	0.00412629
3222	0.00173038
3234	0.00266212
3246	0.00166382
3258	0.00159727
3270	0.00306144
3282	0.00126451
3294	0.00219625
3306	0.00119795
3318	0.00173038
3330	0.00206314
3342	0.00193004
3354	0.00146417
3366	0.00259557
3378	0.00232935
3390	0.00206314
3402	0.00239591
3414	0.00133106
3426	0.00232935
3438	0.00133106
3450	0.00186348
3462	0.0011314
3474	0.000133106
3486	0.00106485
3498	0.000865189
3510	0.000865189
3522	0.00199659
3534	0.00173038
3546	0.00346076
3558	0.00232935
3570	0.00193004
3582	0.00292833
3594	0.00279523
3606	0.00299489
3618	0.00266212
3630	0.00332765
3642	0.00405973
3654	0.00419284
3666	0.00485837
3678	0.00572356
3690	0.00698806
3702	0.00738738
3714	0.00752049
3726	0.00984984
3738	0.0117799
3750	0.0115137
3762	0.0127782
3774	0.0139761
3786	0.0147082
3798	0.0154403
3810	0.0155068
3822	0.0167714
3834	0.0161724
3846	0.0166383
3858	0.0158396
3870	0.0154403
3882	0.0171041
3894	0.0169045
3906	0.0173703
3918	0.0172372
3930	0.0179028
3942	0.0176365
3954	0.00539079
3966	0.00672185
