Infrared Spectrum: Benzaldehyde, 2,5-dimethoxy-
Formula: C 9 H 10 O 3
CAS: 93-02-7
Origin: Sadtler Research Labs Under US-EPA Contract
1/CM	ABSORBANCE
450	0.00563123
462	0.00545526
474	8.7988e-05
486	0.00448739
498	0.00492733
510	0.00774294
522	0.0058952
534	0.01443
546	0.0118784
558	0.0207652
570	0.0339634
582	0.0380108
594	0.0345793
606	0.0210291
618	0.0306198
630	0.0505931
642	0.0411784
654	0.0157499
666	0.0137261
678	0.0184775
690	0.0612396
702	0.147908
714	0.0827087
726	0.0276282
738	0.0175976
750	0.0177736
762	0.0168057
774	0.021997
786	0.0374829
798	0.0642312
810	0.0814769
822	0.0688066
834	0.0312357
846	0.0175096
858	0.0165417
870	0.0350192
882	0.0392426
894	0.0334354
906	0.0205012
918	0.0228769
930	0.0383628
942	0.0374829
954	0.0234928
966	0.0190054
978	0.0247246
990	0.0393306
1002	0.0505051
1014	0.0816529
1026	0.142893
1038	0.29344
1050	0.36955
1062	0.137613
1074	0.0403865
1086	0.029036
1098	0.0299159
1110	0.0285961
1122	0.0313237
1134	0.0578081
1146	0.179584
1158	0.247422
1170	0.147292
1182	0.141221
1194	0.119488
1206	0.228241
1218	0.660174
1230	0.460705
1242	0.173776
1254	0.232464
1266	0.454898
1278	0.493613
1290	0.225425
1302	0.176504
1314	0.128287
1326	0.051385
1338	0.0287721
1350	0.0252526
1362	0.0317637
1374	0.0506811
1386	0.256133
1398	0.232288
1410	0.134006
1422	0.230001
1434	0.182751
1446	0.172105
1458	0.15829
1470	0.243375
1482	0.381868
1494	0.87988
1506	0.502763
1518	0.106729
1530	0.0422342
1542	0.0285961
1554	0.0245487
1566	0.0335234
1578	0.0590399
1590	0.0569282
1602	0.0498892
1614	0.0518249
1626	0.0330835
1638	0.0241967
1650	0.0249886
1662	0.0311478
1674	0.0454898
1686	0.113856
1698	0.506987
1710	0.57245
1722	0.178
1734	0.116936
1746	0.0375709
1758	0.0208532
1770	0.0205012
1782	0.0161898
1794	0.0129342
1806	0.0122303
1818	0.0095027
1830	0.007303
1842	0.00607117
1854	0.00791892
1866	0.00941472
1878	0.00888679
1890	0.00686306
1902	0.00554324
1914	0.00422342
1926	0.00422342
1938	0.00527928
1950	0.0080949
1962	0.0101186
1974	0.00959069
1986	0.00853484
1998	0.00906276
2010	0.00888679
2022	0.00844685
2034	0.00888679
2046	0.0127583
2058	0.0137261
2070	0.0113505
2082	0.00818288
2094	0.0043994
2106	0.00255165
2118	0.00202372
2130	0.00140781
2142	0.00246366
2154	0.00281562
2166	0.00263964
2178	0.00237568
2190	0.00175976
2202	0.00158378
2214	0.000967868
2226	0.00158378
2238	0.00167177
2250	0.00263964
2262	0.00281562
2274	0.0029036
2286	0.00448739
2298	0.00554324
2310	0.00545526
2322	0.00475135
2334	0.0036955
2346	0.00431141
2358	0.00475135
2370	0.00422342
2382	0.00237568
2394	0.000527928
2406	8.7988e-05
2418	0.000703904
2430	0.00114384
2442	0.00105586
2454	0.00158378
2466	0.00263964
2478	0.00316757
2490	0.00299159
2502	0.00263964
2514	0.00422342
2526	0.00395946
2538	0.00334354
2550	0.00316757
2562	0.00263964
2574	0.00307958
2586	0.0029036
2598	0.00325556
2610	0.00316757
2622	0.00272763
2634	0.00325556
2646	0.00351952
2658	0.0036955
2670	0.00422342
2682	0.00580721
2694	0.0101186
2706	0.0186535
2718	0.0182135
2730	0.0119664
2742	0.0204132
2754	0.0420583
2766	0.0274523
2778	0.014606
2790	0.0151339
2802	0.0197973
2814	0.0300919
2826	0.0467216
2838	0.105234
2850	0.185479
2862	0.222346
2874	0.111305
2886	0.0557844
2898	0.058424
2910	0.0832366
2922	0.10585
2934	0.106641
2946	0.161546
2958	0.181255
2970	0.113417
2982	0.0664309
2994	0.0667829
3006	0.139285
3018	0.115
3030	0.0386267
3042	0.0342273
3054	0.0327315
3066	0.0316757
3078	0.0329955
3090	0.0284201
3102	0.0180375
3114	0.0121423
3126	0.00844685
3138	0.00519129
3150	0.00448739
3162	0.00343153
3174	0.00299159
3186	0.00263964
3198	0.00263964
3210	0.00246366
3222	0.00193574
3234	0.00202372
3246	0.0021997
3258	0.00087988
3270	0.0014958
3282	0.00140781
3294	0.00158378
3306	0.00193574
3318	0.000791892
3330	0.00246366
3342	0.00140781
3354	0.00255165
3366	0.0036955
3378	0.00756697
3390	0.0118784
3402	0.0080949
3414	0.00466336
3426	0.00360751
3438	0.00360751
3450	0.0029036
3462	0.00202372
3474	0.00167177
3486	0.00167177
3498	0.000967868
3510	0.000791892
3522	0.000615916
3534	0.00105586
3546	0.00158378
3558	0.00105586
3570	0.00325556
3582	0.000527928
3594	0.00158378
3606	0.00211171
3618	0.00255165
3630	0.0021997
3642	0.00167177
3654	0.00158378
3666	0.000967868
3678	0.0021997
3690	0.00281562
3702	0.00167177
3714	0.00211171
3726	0.000703904
3738	0.00307958
3750	0.00281562
3762	0.000703904
3774	0.000527928
3786	0.00158378
3798	0.00123183
3810	0.000703904
3822	0.00175976
3834	0.000967868
3846	0.00114384
3858	0.00123183
3870	0.00184775
3882	0.00175976
3894	0.000703904
3906	0.00123183
3918	0.000791892
3930	0.000791892
3942	0.0014958
3954	0
3966	8.7988e-05
