Infrared Spectrum: Benzoic acid, 3,4-dimethoxy-
Formula: C 9 H 10 O 4
CAS: 93-07-2
Origin: Sadtler Research Labs Under US-EPA Contract
1/CM	ABSORBANCE
450	0
462	0.0091533
474	0.0154629
486	0.0114638
498	0.022039
510	0.0402568
522	0.0691385
534	0.0711825
546	0.0562528
558	0.0341249
570	0.0291484
582	0.0392792
594	0.0786473
606	0.152407
618	0.11846
630	0.0324365
642	0.0194619
654	0.00870897
666	0.0142187
678	0.0118193
690	0.0238164
702	0.0563417
714	0.0791805
726	0.0419452
738	0.0496767
750	0.0736707
762	0.153829
774	0.10904
786	0.0298593
798	0.0186621
810	0.0209726
822	0.0299482
834	0.0206171
846	0.0168847
858	0.0145742
870	0.0219501
882	0.0306591
894	0.0420341
906	0.0493212
918	0.0242607
930	0.011997
942	0.011375
954	0.01333
966	0.0143076
978	0.0188398
990	0.0309257
1002	0.0572303
1014	0.135878
1026	0.23141
1038	0.219057
1050	0.09491
1062	0.0697606
1074	0.182622
1086	0.234698
1098	0.149919
1110	0.126724
1122	0.23061
1134	0.281264
1146	0.289529
1158	0.461042
1170	0.296016
1182	0.181466
1194	0.166359
1206	0.146275
1218	0.154184
1230	0.204305
1242	0.222434
1254	0.215236
1266	0.433227
1278	0.526981
1290	0.257892
1302	0.169558
1314	0.136944
1326	0.118993
1338	0.162982
1350	0.239319
1362	0.162893
1374	0.0992644
1386	0.0637176
1398	0.0765145
1410	0.17569
1422	0.164137
1434	0.0684276
1446	0.0813133
1458	0.108595
1470	0.123792
1482	0.080869
1494	0.0991756
1506	0.255137
1518	0.274244
1530	0.0777586
1542	0.0268378
1554	0.0290595
1566	0.0426562
1578	0.0758924
1590	0.119437
1602	0.172224
1614	0.107796
1626	0.0292372
1638	0.0141299
1650	0.012708
1662	0.0135078
1674	0.0134189
1686	0.0128857
1698	0.0266601
1710	0.0437226
1722	0.0398124
1734	0.0586522
1746	0.339739
1758	0.88867
1770	0.220746
1782	0.0458554
1794	0.0303036
1806	0.0349247
1818	0.0258603
1830	0.00897557
1842	0.00630956
1854	0.00613182
1866	0.00719823
1878	0.0080869
1890	0.00728709
1902	0.00684276
1914	0.00657616
1926	0.00524315
1938	0.00515429
1950	0.00479882
1962	0.00355468
1974	0.00355468
1986	0.00470995
1998	0.00524315
2010	0.00684276
2022	0.00986424
2034	0.011375
2046	0.00959764
2058	0.00977537
2070	0.00790916
2082	0.00488769
2094	0.00284374
2106	0.00239941
2118	0.00231054
2130	0.00186621
2142	0.00231054
2154	0.00346581
2166	0.00284374
2178	0.00231054
2190	0.00222168
2202	0.00168847
2214	0.00124414
2226	0.00186621
2238	0.00213281
2250	0.00266601
2262	0.00266601
2274	0.00311035
2286	0.00364355
2298	0.00417675
2310	0.00524315
2322	0.00559862
2334	0.00577636
2346	0.00657616
2358	0.0086201
2370	0.00586522
2382	0.00284374
2394	0.000177734
2406	0.000533202
2418	0.00142187
2430	0.000977537
2442	0.000977537
2454	0.00142187
2466	0.00142187
2478	0.001333
2490	0.00213281
2502	0.00293261
2514	0.00284374
2526	0.00231054
2538	0.00231054
2550	0.00284374
2562	0.00319921
2574	0.00284374
2586	0.00417675
2598	0.00542089
2610	0.00479882
2622	0.00311035
2634	0.00222168
2646	0.00222168
2658	0.00124414
2670	0.000710936
2682	0.000710936
2694	0.000799803
2706	0.000622069
2718	0.000977537
2730	0.000177734
2742	0.00142187
2754	0.00177734
2766	0.00239941
2778	0.00266601
2790	0.00382128
2802	0.00550975
2814	0.0104863
2826	0.0207949
2838	0.0473661
2850	0.0678944
2862	0.04079
2874	0.0313701
2886	0.0302148
2898	0.0344804
2910	0.0471884
2922	0.060163
2934	0.076159
2946	0.115971
2958	0.106285
2970	0.082202
2982	0.0545643
2994	0.0489657
3006	0.0786473
3018	0.0718934
3030	0.0259492
3042	0.0178623
3054	0.0173291
3066	0.0175957
3078	0.0203505
3090	0.0211503
3102	0.0124414
3114	0.00906443
3126	0.00728709
3138	0.00550975
3150	0.00497655
3162	0.00470995
3174	0.00453222
3186	0.00399901
3198	0.00373241
3210	0.00373241
3222	0.00337695
3234	0.00311035
3246	0.00311035
3258	0.00382128
3270	0.00302148
3282	0.00284374
3294	0.00391015
3306	0.00408788
3318	0.00284374
3330	0.00328808
3342	0.00408788
3354	0.00391015
3366	0.00515429
3378	0.00426562
3390	0.00550975
3402	0.00506542
3414	0.00479882
3426	0.00426562
3438	0.00497655
3450	0.00479882
3462	0.00426562
3474	0.00497655
3486	0.00702049
3498	0.00924217
3510	0.00613182
3522	0.00542089
3534	0.00622069
3546	0.00533202
3558	0.00746483
3570	0.0213281
3582	0.210526
3594	0.175779
3606	0.0138633
3618	0.00399901
3630	0.00088867
3642	0.00515429
3654	0.00319921
3666	0.00515429
3678	0.001333
3690	0.00124414
3702	0.00417675
3714	0.000533202
3726	0.00302148
3738	0.00124414
3750	0.000799803
3762	0.00391015
3774	0.00479882
3786	0.00435448
3798	0.00346581
3810	0.00391015
3822	0.00257714
3834	0.00293261
3846	0.00284374
3858	0.00373241
3870	0.00417675
3882	0.00479882
3894	0.00497655
3906	0.00568749
3918	0.00773143
3930	0.00684276
3942	0.00790916
3954	0.000533202
3966	0.00142187
