Infrared Spectrum: 2-Naphthalenesulfonyl chloride
Formula: C 10 H 7 Cl O 2 S
CAS: 93-11-8
Origin: Sadtler Research Labs Under US-EPA Contract
1/CM	ABSORBANCE
450	0.0439594
462	0.0680867
474	0.103827
486	0.0854265
498	0.0640036
510	0.0637385
522	0.209987
534	0.233425
546	0.0729121
558	0.260999
570	0.405285
582	0.0638975
594	0.043111
606	0.132727
618	0.0740257
630	0.106902
642	0.21863
654	0.446116
666	0.0424216
678	0.0364295
690	0.0223774
702	0.00519665
714	0.00583297
726	0.0183473
738	0.131772
750	0.0946002
762	0.0139461
774	0.0115069
786	0.0149006
798	0.0304375
810	0.117402
822	0.0363765
834	0.0141052
846	0.0397172
858	0.0713213
870	0.0228016
882	0.0101812
894	0.0134158
906	0.0226956
918	0.00143173
930	0.00737075
942	0.0130977
954	0.0121432
966	0.0101282
978	0.00737075
990	0.00869643
1002	0.0119841
1014	0.0309678
1026	0.0386037
1038	0.0316571
1050	0.0260893
1062	0.0632612
1074	0.0976757
1086	0.0396642
1098	0.0476713
1110	0.0288467
1122	0.0405126
1134	0.0733363
1146	0.0575343
1158	0.0938578
1170	0.211578
1182	0.53027
1194	0.273089
1206	0.0760407
1218	0.0415732
1230	0.0303314
1242	0.0210517
1254	0.0257181
1266	0.0494212
1278	0.0278922
1290	0.0189306
1302	0.0121962
1314	0.0121432
1326	0.013681
1338	0.0336721
1350	0.0483606
1362	0.0625188
1374	0.0899338
1386	0.162157
1398	0.38259
1410	0.144286
1422	0.0112948
1434	0.00599205
1446	0.00100751
1458	0.0164914
1470	0.00546178
1482	0.00540875
1494	0.0112948
1506	0.0375961
1518	0.0119311
1530	0.00307557
1542	0.00996908
1554	0.00445427
1566	0.00206805
1578	0.0103403
1590	0.0162263
1602	0.00843129
1614	0.00318162
1626	0.0169686
1638	0.0127795
1650	0.00859037
1662	0.00397703
1674	0.00408308
1686	0.00811313
1698	0.0107115
1710	0.0111357
1722	0.0125674
1734	0.0163323
1746	0.0138931
1758	0.0242333
1770	0.0223244
1782	0.0173398
1794	0.0192488
1806	0.0155369
1818	0.0113478
1830	0.00795405
1842	0.00721167
1854	0.00339373
1866	0.00487848
1878	0.00270438
1890	0.00349978
1902	0.00684048
1914	0.0105524
1926	0.00821919
1938	0.00498454
1950	0.00795405
1962	0.00715864
1974	0.00143173
1986	0.00174989
1998	0.00201503
2010	0.001962
2022	0.00259832
2034	0.00159081
2046	0.00180292
2058	0.00201503
2070	0.00174989
2082	0.00270438
2094	0.00217411
2106	0.00190897
2118	0.00562086
2130	0.00498454
2142	0.00291648
2154	0.00201503
2166	0.00286346
2178	0.00238622
2190	0.00212108
2202	0.00381794
2214	0.00249227
2226	0.00228016
2238	0.00270438
2250	0.00381794
2262	0.00328767
2274	0.00498454
2286	0.00917367
2298	0.0147415
2310	0.0183473
2322	0.0165444
2334	0.013681
2346	0.0154309
2358	0.0190367
2370	0.0160142
2382	0.0133098
2394	0.00291648
2406	0.0033407
2418	0.00201503
2430	0.00387097
2442	0.00270438
2454	0.00307557
2466	0.0025453
2478	0.00318162
2490	0.00328767
2502	0.00212108
2514	0.00270438
2526	0.00291648
2538	0.00360584
2550	0.00312859
2562	0.00482546
2574	0.00450729
2586	0.00371189
2598	0.00249227
2610	0.00286346
2622	0.00206805
2634	0.00116659
2646	0.00387097
2658	0.00328767
2670	0.00259832
2682	0.00312859
2694	0.00397703
2706	0.00567389
2718	0.00493151
2730	0.00524967
2742	0.00365886
2754	0.00641627
2766	0.00445427
2778	0.00641627
2790	0.00498454
2802	0.00641627
2814	0.00434821
2826	0.00387097
2838	0.00440124
2850	0.0053027
2862	0.00577994
2874	0.00790102
2886	0.00646929
2898	0.00509059
2910	0.0072647
2922	0.00768892
2934	0.00954486
2946	0.0126204
2958	0.0101282
2970	0.0101812
2982	0.0129386
2994	0.00869643
3006	0.0103933
3018	0.0151657
3030	0.019567
3042	0.0201503
3054	0.0355281
3066	0.100751
3078	0.0674503
3090	0.0345206
3102	0.0162793
3114	0.00890854
3126	0.00954486
3138	0.00912064
3150	0.00678746
3162	0.00779497
3174	0.00816616
3186	0.00869643
3198	0.00673443
3210	0.00652232
3222	0.00954486
3234	0.00620416
3246	0.0100751
3258	0.00546178
3270	0.00599205
3282	0.00927972
3294	0.0072647
3306	0.00599205
3318	0.00567389
3330	0.00869643
3342	0.00954486
3354	0.00859037
3366	0.0060981
3378	0.00577994
3390	0.00593902
3402	0.00742378
3414	0.00445427
3426	0.00710562
3438	0.00519665
3450	0.0060981
3462	0.00705259
3474	0.00540875
3486	0.00572692
3498	0.0066814
3510	0.00604508
3522	0.00509059
3534	0.00694654
3546	0.00811313
3558	0.00493151
3570	0.0153778
3582	0.00901459
3594	0.00954486
3606	0.00689351
3618	0.00599205
3630	0.0139991
3642	0.00424216
3654	0.00917367
3666	0.00132567
3678	0.00885551
3690	0.0106584
3702	0.00625719
3714	0.00912064
3726	0.0128325
3738	0.0142643
3750	0.0123553
3762	0.00620416
3774	0.00752983
3786	0.00509059
3798	0.00938578
3810	0.00731773
3822	0.00800708
3834	0.00440124
3846	0.00927972
3858	0.00376492
3870	0.0033407
3882	0.00387097
3894	0.00434821
3906	0.00625719
3918	0.00159081
3930	0.00562086
3942	0.00631021
3954	0
3966	0.000371189
