Infrared Spectrum: Naphthalene, 2-ethoxy-
Formula: C 12 H 12 O
CAS: 93-18-5
Origin: Sadtler Research Labs Under US-EPA Contract
1/CM	ABSORBANCE
450	0.0876302
462	0.120432
474	0.0885755
486	0.025807
498	0.0121945
510	0.00841326
522	0.0177718
534	0.0139906
546	0.0117218
558	0.0214585
570	0.000850779
582	0.0108711
594	0.00756248
606	0.0223093
618	0.0906552
630	0.058042
642	0.018339
654	0.0128562
666	0.00879138
678	0.00633358
690	0.0312898
702	0.0328968
714	0.0554897
726	0.119865
738	0.269981
750	0.186132
762	0.036489
774	0.016732
786	0.00983122
798	0.0572858
810	0.0876302
822	0.123079
834	0.250507
846	0.197097
858	0.0861177
870	0.0646592
882	0.0657936
894	0.0376233
906	0.0344093
918	0.0764756
930	0.088481
942	0.0553952
954	0.0878193
966	0.1573
978	0.0309116
990	0.0136125
1002	0.00652264
1014	0.0340312
1026	0.097556
1038	0.262985
1050	0.267145
1062	0.0859287
1074	0.0262796
1086	0.0354491
1098	0.0418772
1110	0.126672
1122	0.444863
1134	0.153802
1146	0.111263
1158	0.224511
1170	0.534951
1182	0.598854
1194	0.170061
1206	0.47464
1218	0.916289
1230	0.217043
1242	0.324903
1254	0.816748
1266	0.648388
1278	0.260716
1290	0.144254
1302	0.11599
1314	0.0684404
1326	0.0726943
1338	0.11495
1350	0.168643
1362	0.174221
1374	0.164862
1386	0.330291
1398	0.308738
1410	0.111452
1422	0.054828
1434	0.0784607
1446	0.116084
1458	0.240203
1470	0.496193
1482	0.174599
1494	0.141986
1506	0.347401
1518	0.275085
1530	0.0387577
1542	0.030628
1554	0.0356382
1566	0.0587038
1578	0.12998
1590	0.242283
1602	0.490238
1614	0.205416
1626	0.467172
1638	0.426807
1650	0.100865
1662	0.0468874
1674	0.0456585
1686	0.0424444
1698	0.0374343
1710	0.0326132
1722	0.0238218
1734	0.0234437
1746	0.0251452
1758	0.0289265
1770	0.0296827
1782	0.0236327
1794	0.0155031
1806	0.0173937
1818	0.0220257
1830	0.012289
1842	0.0127617
1854	0.00708982
1866	0.0094531
1878	0.0190007
1890	0.0275085
1902	0.0345983
1914	0.0286429
1926	0.0254288
1938	0.0293046
1950	0.0136125
1962	0.00652264
1974	0.0103039
1986	0.0111547
1998	0.00926404
2010	0.00860232
2022	0.00359218
2034	0.00614451
2046	0.00387577
2058	0.00737342
2070	0.00708982
2082	0.00756248
2094	0.00718436
2106	0.00425389
2118	0.00727889
2130	0.00652264
2142	0.00926404
2154	0.00737342
2166	0.00652264
2178	0.00614451
2190	0.00482108
2202	0.00614451
2214	0.00189062
2226	0.00406483
2238	0.00302499
2250	0.00340312
2262	0.00359218
2274	0.00529374
2286	0.00737342
2298	0.00916951
2310	0.0172046
2322	0.0192843
2334	0.0233492
2346	0.0250507
2358	0.0301554
2370	0.0241999
2382	0.0149359
2394	0.0119109
2406	0.00661717
2418	0.0127617
2430	0.0103039
2442	0.00926404
2454	0.00491561
2466	0.00633358
2478	0.00690076
2490	0.00378124
2502	0.00576639
2514	0.00141796
2526	0.00538827
2538	0.00330858
2550	0.00472655
2562	0.00708982
2574	0.00614451
2586	0.00718436
2598	0.00775154
2610	0.00898045
2622	0.00690076
2634	0.0067117
2646	0.00680623
2658	0.00586092
2670	0.0051992
2682	0.00378124
2694	0.00604998
2706	0.00349765
2718	0.00850779
2730	0.0101148
2742	0.012289
2754	0.0126672
2766	0.012289
2778	0.0139906
2790	0.0150304
2802	0.0155031
2814	0.0149359
2826	0.0222148
2838	0.022782
2850	0.0324241
2862	0.0458475
2874	0.076381
2886	0.125632
2898	0.130642
2910	0.150399
2922	0.147468
2934	0.146239
2946	0.197381
2958	0.129791
2970	0.135841
2982	0.259109
2994	0.305335
3006	0.140189
3018	0.108522
3030	0.14
3042	0.128846
3054	0.229521
3066	0.383796
3078	0.246253
3090	0.11684
3102	0.05946
3114	0.0203242
3126	0.0140851
3138	0.00935857
3150	0.0082242
3162	0.0105875
3174	0.00803513
3186	0.00680623
3198	0.00775154
3210	0.0079406
3222	0.00378124
3234	0.0054828
3246	0.00330858
3258	0.00283593
3270	0.00538827
3282	0.00311952
3294	0.00444296
3306	0.00264687
3318	0.00283593
3330	0.0039703
3342	0.00349765
3354	0.00311952
3366	0.00368671
3378	0.00434843
3390	0.00330858
3402	0.00623905
3414	0.00245781
3426	0.00482108
3438	0.00217421
3450	0.00453749
3462	0.00302499
3474	0.00132343
3486	0.00132343
3498	0
3510	0.00245781
3522	0.0027414
3534	0.0039703
3546	0.00529374
3558	0.00406483
3570	0.00207968
3582	0.00652264
3594	0.00415936
3606	0.0039703
3618	0.00264687
3630	0.00094531
3642	0.00661717
3654	0.00538827
3666	0.00841326
3678	0.00567186
3690	0.0094531
3702	0.0130453
3714	0.012289
3726	0.0155976
3738	0.0187171
3750	0.0165429
3762	0.0226874
3774	0.0270359
3786	0.0284538
3798	0.0292101
3810	0.0307226
3822	0.0301554
3834	0.0295882
3846	0.0293991
3858	0.0281702
3870	0.0268468
3882	0.0280757
3894	0.0305335
3906	0.0310062
3918	0.0312898
3930	0.033464
3942	0.0330858
3954	0.00850779
3966	0.0110601
