Infrared Spectrum: Benzene, 1,2-dimethoxy-4-(1-propenyl)-
Formula: C 11 H 14 O 2
CAS: 93-16-3
Origin: Sadtler Research Labs Under US-EPA Contract
1/CM	ABSORBANCE
450	0.0410158
462	0
474	0.0183791
486	0.00661818
498	0.0241964
510	0.0332595
522	0.0122668
534	0.00560648
546	0.0184635
558	0.0160185
570	0.00649172
582	0.0202761
594	0.0312783
606	0.0270629
618	0.0247444
630	0.0195595
642	0.0123511
654	0.0125619
666	0.01096
678	0.0123933
690	0.00973757
702	0.0125197
714	0.00940034
726	0.018337
738	0.0359152
750	0.0337654
762	0.0485614
774	0.0470439
786	0.0479291
798	0.031489
810	0.0276109
822	0.0326693
834	0.0307724
846	0.0279903
858	0.0323321
870	0.0283696
882	0.0272736
894	0.0272736
906	0.0272315
918	0.0320792
930	0.0269364
942	0.0313204
954	0.0800083
966	0.0749498
978	0.0319949
990	0.0312783
1002	0.0510485
1014	0.091432
1026	0.176962
1038	0.189229
1050	0.0956053
1062	0.035578
1074	0.0226367
1086	0.0204868
1098	0.0262198
1110	0.0513857
1122	0.112846
1134	0.137253
1146	0.11997
1158	0.126504
1170	0.0783643
1182	0.0543365
1194	0.053367
1206	0.0632732
1218	0.124101
1230	0.202719
1242	0.198925
1254	0.22662
1266	0.368848
1278	0.371672
1290	0.230751
1302	0.17359
1314	0.103952
1326	0.0623458
1338	0.0416903
1350	0.0285383
1362	0.0240699
1374	0.0259669
1386	0.0298029
1398	0.0476762
1410	0.0940877
1422	0.0690904
1434	0.0535356
1446	0.0879332
1458	0.0887342
1470	0.114195
1482	0.0904625
1494	0.146232
1506	0.365855
1518	0.325302
1530	0.0951837
1542	0.0369691
1554	0.0333017
1566	0.0486879
1578	0.0667719
1590	0.0510485
1602	0.0529033
1614	0.0402571
1626	0.0181684
1638	0.0126462
1650	0.00927388
1662	0.0112551
1674	0.00678679
1686	0.00514279
1698	0.00463694
1710	0.00931603
1722	0.0102013
1734	0.00868372
1746	0.00893665
1758	0.00800926
1770	0.00750341
1782	0.00615448
1794	0.00505848
1806	0.00556433
1818	0.00653387
1830	0.00615448
1842	0.00539571
1854	0.00657602
1866	0.00695541
1878	0.00695541
1890	0.00539571
1902	0.00526925
1914	0.0047634
1926	0.00493202
1938	0.00535356
1950	0.00493202
1962	0.00556433
1974	0.00615448
1986	0.00809357
1998	0.0102434
2010	0.0099905
2022	0.0109179
2034	0.0121825
2046	0.010412
2058	0.00977973
2070	0.0089788
2082	0.00729264
2094	0.00514279
2106	0.00438402
2118	0.00345663
2130	0.00349878
2142	0.00324586
2154	0.00337232
2166	0.0036674
2178	0.00408894
2190	0.00408894
2202	0.00404678
2214	0.00341447
2226	0.00354094
2238	0.0036674
2250	0.00408894
2262	0.00438402
2274	0.00446832
2286	0.00396248
2298	0.00324586
2310	0.00198124
2322	0.00122247
2334	0.00143324
2346	0.00214985
2358	0.00143324
2370	0.0010117
2382	0.00278216
2394	0.00248709
2406	0.00248709
2418	0.00244493
2430	0.00261355
2442	0.0026557
2454	0.00290863
2466	0.00324586
2478	0.00362524
2490	0.0036674
2502	0.00400463
2514	0.00392032
2526	0.00514279
2538	0.00552217
2550	0.00585941
2562	0.00590156
2574	0.00552217
2586	0.00526925
2598	0.00543787
2610	0.00543787
2622	0.00472125
2634	0.00408894
2646	0.00400463
2658	0.00387817
2670	0.00333017
2682	0.00375171
2694	0.00408894
2706	0.0042154
2718	0.00438402
2730	0.00564864
2742	0.00948465
2754	0.00712403
2766	0.00636525
2778	0.00758772
2790	0.00910526
2802	0.0127727
2814	0.0198545
2826	0.0364632
2838	0.0846452
2850	0.0847295
2862	0.0682895
2874	0.0737273
2886	0.0602802
2898	0.0740646
2910	0.0901674
2922	0.129118
2934	0.162377
2946	0.175234
2958	0.144799
2970	0.114322
2982	0.0865
2994	0.0923594
3006	0.1319
3018	0.0961533
3030	0.0913056
3042	0.0589734
3054	0.0505426
3066	0.0434186
3078	0.0319527
3090	0.0230582
3102	0.0163979
3114	0.0131099
3126	0.0107071
3138	0.00712403
3150	0.00518494
3162	0.00434186
3174	0.00434186
3186	0.00290863
3198	0.00261355
3210	0.00307724
3222	0.00219201
3234	0.0021077
3246	0.00286647
3258	0.00290863
3270	0.00307724
3282	0.00252924
3294	0.00282432
3306	0.00244493
3318	0.00328801
3330	0.0026557
3342	0.00202339
3354	0.00269786
3366	0.00282432
3378	0.00227632
3390	0.00227632
3402	0.0031194
3414	0.00328801
3426	0.00248709
3438	0.00214985
3450	0.00240278
3462	0.00244493
3474	0.0021077
3486	0.00252924
3498	0.00198124
3510	0.00244493
3522	0.00223416
3534	0.00261355
3546	0.00236062
3558	0.00236062
3570	0.00299293
3582	0.00261355
3594	0.00172831
3606	0.00214985
3618	0.0032037
3630	0.00244493
3642	0.00290863
3654	0.00286647
3666	0.00269786
3678	0.0015597
3690	0.00282432
3702	0.00282432
3714	0.00413109
3726	0.0010117
3738	0.00151754
3750	0.00497417
3762	0.00358309
3774	0.0032037
3786	0.00214985
3798	0.00337232
3810	0.00349878
3822	0.00299293
3834	0.0036674
3846	0.00510063
3858	0.00295078
3870	0.0047634
3882	0.00370955
3894	0.00341447
3906	0.00442617
3918	0.00413109
3930	0.00240278
3942	0.00147539
3954	0.00383601
3966	0.00328801
