Infrared Spectrum: Benzeneacetic acid, 2-methoxy-
Formula: C 9 H 10 O 3
CAS: 93-25-4
Origin: Sadtler Research Labs Under US-EPA Contract
1/CM	ABSORBANCE
450	0.0151501
462	0.0195869
474	0.0134187
486	0.0203444
498	0.0315988
510	0.0544321
522	0.0495625
534	0.0589772
546	0.101397
558	0.1528
570	0.138623
582	0.141004
594	0.270429
606	0.260582
618	0.184507
630	0.147822
642	0.116548
654	0.082027
666	0.0674179
678	0.0581115
690	0.044801
702	0.0397149
714	0.0351699
726	0.0662276
738	0.136026
750	0.322914
762	0.200631
774	0.0683919
786	0.0293263
798	0.00822434
810	0.00519432
822	0.00757505
834	0.014609
846	0.0147172
858	0.0370095
870	0.0267291
882	0.0102804
894	0.00551897
906	0.00205609
918	0.00670933
930	0.0141762
942	0.00995578
954	0.00735862
966	0.00497789
978	0.00638469
990	0.0125529
1002	0.0268373
1014	0.0817023
1026	0.199873
1038	0.237965
1050	0.206907
1062	0.12488
1074	0.111894
1086	0.195653
1098	0.420307
1110	0.954023
1122	0.986704
1134	0.579924
1146	0.366849
1158	0.241644
1170	0.230065
1182	0.2055
1194	0.148038
1206	0.154747
1218	0.190999
1230	0.320316
1242	0.71898
1254	0.787481
1266	0.335034
1278	0.226602
1290	0.23948
1302	0.195003
1314	0.151717
1326	0.124339
1338	0.125854
1350	0.15583
1362	0.191324
1374	0.15215
1386	0.0824598
1398	0.0600593
1410	0.0564882
1422	0.0741273
1434	0.114059
1446	0.155721
1458	0.194354
1470	0.238506
1482	0.258093
1494	0.493244
1506	0.343474
1518	0.0861391
1530	0.0242402
1542	0.0135269
1554	0.0135269
1566	0.0281359
1578	0.0797545
1590	0.146523
1602	0.142303
1614	0.0675262
1626	0.0167733
1638	0.00606004
1650	0.00541075
1662	0.00562718
1674	0.0135269
1686	0.0212101
1698	0.0336549
1710	0.051835
1722	0.0862474
1734	0.145549
1746	0.246189
1758	0.412732
1770	0.757721
1782	1.08031
1794	0.731101
1806	0.338605
1818	0.140788
1830	0.0633058
1842	0.0320316
1854	0.0172062
1866	0.0125529
1878	0.0107133
1890	0.0132022
1902	0.010064
1914	0.00530254
1926	0.00887363
1938	0.00606004
1950	0.00173144
1962	0.00227252
1974	0.00411217
1986	0.00476146
1998	0.00595182
2010	0.0086572
2022	0.0101722
2034	0.00909006
2046	0.00854899
2058	0.00833256
2070	0.00703398
2082	0.00454503
2094	0.00205609
2106	0.000541075
2118	0.00021643
2130	0.00043286
2142	0.00086572
2154	0.00064929
2166	0.000108215
2178	0.000324645
2190	0.000541075
2202	0.00173144
2214	0.0029218
2226	0.0035711
2238	0.00238073
2250	0.00151501
2262	0.00227252
2274	0.00303002
2286	0.00259716
2298	0.00205609
2310	0.00248895
2322	0.00335467
2334	0.00194787
2346	0.00183966
2358	0.00270538
2370	0
2382	0.00183966
2394	0.00043286
2406	0.000324645
2418	0.00021643
2430	0
2442	0.00086572
2454	0.0014068
2466	0.00238073
2478	0.00400396
2490	0.00476146
2502	0.00411217
2514	0.0029218
2526	0.00389574
2538	0.00486968
2550	0.00367931
2562	0.0029218
2574	0.0021643
2586	0.00227252
2598	0.00205609
2610	0.00259716
2622	0.0021643
2634	0.0021643
2646	0.00238073
2658	0.00151501
2670	0.00108215
2682	0.000541075
2694	0.00064929
2706	0.00162323
2718	0.00173144
2730	0.00205609
2742	0.00194787
2754	0.00227252
2766	0.00259716
2778	0.0043286
2790	0.00606004
2802	0.00876542
2814	0.0147172
2826	0.0284605
2838	0.0808366
2850	0.1146
2862	0.0565964
2874	0.0367931
2886	0.043286
2898	0.0587607
2910	0.0799709
2922	0.107782
2934	0.150202
2946	0.207448
2958	0.189809
2970	0.123798
2982	0.0771573
2994	0.0830009
3006	0.131481
3018	0.103886
3030	0.0980428
3042	0.106051
3054	0.0838666
3066	0.102155
3078	0.126395
3090	0.0956621
3102	0.0424203
3114	0.0282441
3126	0.0181801
3138	0.0106051
3150	0.00800791
3162	0.00789969
3174	0.00757505
3186	0.00638469
3198	0.00508611
3210	0.00486968
3222	0.00443682
3234	0.00454503
3246	0.00346288
3258	0.00367931
3270	0.00346288
3282	0.00313824
3294	0.00313824
3306	0.00324645
3318	0.00324645
3330	0.00313824
3342	0.00335467
3354	0.00346288
3366	0.00411217
3378	0.0043286
3390	0.00422039
3402	0.00519432
3414	0.00508611
3426	0.00497789
3438	0.00627647
3450	0.00789969
3462	0.0109297
3474	0.0108215
3486	0.0110379
3498	0.0108215
3510	0.0123365
3522	0.0143926
3534	0.017098
3546	0.0287852
3558	0.0561636
3570	0.303651
3582	0.37767
3594	0.0626565
3606	0.0188294
3618	0.0112544
3630	0.00909006
3642	0.00389574
3654	0.00389574
3666	0.00129858
3678	0.00335467
3690	0.0035711
3702	0.00183966
3714	0.00281359
3726	0.0029218
3738	0.00486968
3750	0.00476146
3762	0.00119037
3774	0.00064929
3786	0.000541075
3798	0.00151501
3810	0.00108215
3822	0.00281359
3834	0.00248895
3846	0.000973935
3858	0.00335467
3870	0.00595182
3882	0.00476146
3894	0.00303002
3906	0.00638469
3918	0.0043286
3930	0.00313824
3942	0.00367931
3954	0.00183966
3966	0.00270538
