Infrared Spectrum: 2,5-Dimethylbenzylamine
Formula: C 9 H 13 N
CAS: 93-48-1
Origin: Sadtler Research Labs Under US-EPA Contract
1/CM	ABSORBANCE
450	0.0687591
462	0.0423864
474	0.0315271
486	0.00960826
498	0.0102088
510	0.000850731
522	0.0168645
534	0.0286746
546	0.0293752
558	0.0189663
570	0.0155634
582	0.0123606
594	0.0167144
606	0.029125
618	0.0338791
630	0.0270232
642	0.0215185
654	0.0197169
666	0.0254218
678	0.0312268
690	0.0394839
702	0.059351
714	0.0810697
726	0.113347
738	0.146326
750	0.134115
762	0.138869
774	0.168995
786	0.239406
798	0.338591
810	0.429119
822	0.243159
834	0.128961
846	0.0704105
858	0.04654
870	0.0553476
882	0.0670076
894	0.0418359
906	0.0283744
918	0.029075
930	0.0391336
942	0.0286746
954	0.0295754
966	0.0432372
978	0.0344296
990	0.0363312
1002	0.0353804
1014	0.0396841
1026	0.0557979
1038	0.0701102
1050	0.0597013
1062	0.0346798
1074	0.0176151
1086	0.0107592
1098	0.0086074
1110	0.00990851
1122	0.0138619
1134	0.0103589
1146	0.0290249
1158	0.0580999
1170	0.0200672
1182	0.000850731
1194	0.00135116
1206	0.0096583
1218	0.0101587
1230	0.0109594
1242	0.0165642
1254	0.0118101
1266	0.0130112
1278	0.0196169
1290	0.0277739
1302	0.0154633
1314	0.0239206
1326	0.0381828
1338	0.0474408
1350	0.0467402
1362	0.0578998
1374	0.0846728
1386	0.0920291
1398	0.0635546
1410	0.0517945
1422	0.0601517
1434	0.0679084
1446	0.0905278
1458	0.110345
1470	0.109744
1482	0.114598
1494	0.189713
1506	0.238605
1518	0.106191
1530	0.0438377
1542	0.033729
1554	0.0349801
1566	0.0381328
1578	0.0410353
1590	0.0479912
1602	0.0770662
1614	0.120654
1626	0.102638
1638	0.0867746
1650	0.0927297
1662	0.0283243
1674	0.0119603
1686	0.00865744
1698	0.00380327
1710	0.00275237
1722	0.00720619
1734	0.00575495
1746	0.0134616
1758	0.0115099
1770	0.00680585
1782	0.0036031
1794	0.00210181
1806	0.00290249
1818	0.00510439
1830	0.00600516
1842	0.00510439
1854	0.00540464
1866	0.00810697
1878	0.0125608
1890	0.0136617
1902	0.00470404
1914	0.00235202
1926	0.00260224
1938	0.000200172
1950	0.000650559
1962	0.00205176
1974	0.00165142
1986	0.00250215
1998	0.000850731
2010	0.000850731
2022	0.00115099
2034	0.000800688
2046	0.00100086
2058	0.000800688
2070	0.000800688
2082	0.00150129
2094	0.00200172
2106	0.00200172
2118	0.00205176
2130	0.00120103
2142	0.00100086
2154	0.00150129
2166	0.00100086
2178	0.00115099
2190	0.00145125
2202	0.000650559
2214	0.00180155
2226	0.00170146
2238	0.00195168
2250	0.00165142
2262	0.00195168
2274	0.00280241
2286	0.00375323
2298	0.00600516
2310	0.00385331
2322	0.000650559
2334	0.0060552
2346	0.0057049
2358	0.00485417
2370	0.0107592
2382	0.00715615
2394	0.0043037
2406	0.0043037
2418	0.00495426
2430	0.0050043
2442	0.0053546
2454	0.00520447
2466	0.00615529
2478	0.0064055
2490	0.004654
2502	0.00545469
2514	0.00565486
2526	0.00610525
2538	0.00755649
2550	0.00760654
2562	0.00745641
2574	0.00835718
2586	0.0086074
2598	0.00890765
2610	0.00975838
2622	0.0101587
2634	0.0109094
2646	0.0117601
2658	0.0121604
2670	0.0125608
2682	0.0132614
2694	0.0141121
2706	0.0169646
2718	0.0203675
2730	0.0272734
2742	0.0393338
2754	0.0351802
2766	0.0297255
2778	0.0307764
2790	0.0367316
2802	0.0458394
2814	0.0587004
2826	0.0784674
2838	0.109644
2850	0.158036
2862	0.242008
2874	0.334988
2886	0.331685
2898	0.288448
2910	0.296154
2922	0.398793
2934	0.50043
2946	0.387983
2958	0.277188
2970	0.227946
2982	0.214384
2994	0.229948
3006	0.287197
3018	0.293652
3030	0.236303
3042	0.215986
3054	0.219689
3066	0.134616
3078	0.0796184
3090	0.053546
3102	0.0403347
3114	0.0367316
3126	0.0319274
3138	0.0222191
3150	0.0157635
3162	0.0118101
3174	0.0107592
3186	0.0108093
3198	0.00920791
3210	0.00840722
3222	0.00725624
3234	0.00735632
3246	0.00660568
3258	0.00545469
3270	0.00610525
3282	0.00525452
3294	0.0043037
3306	0.0043037
3318	0.00420361
3330	0.00730628
3342	0.0101587
3354	0.00890765
3366	0.00520447
3378	0.0036031
3390	0.00355305
3402	0.00440378
3414	0.00550473
3426	0.00495426
3438	0.0039534
3450	0.00310267
3462	0.00415357
3474	0.00265228
3486	0.00345297
3498	0.00170146
3510	0.0050043
3522	0.00310267
3534	0.00365314
3546	0.0050043
3558	0.00355305
3570	0.0053546
3582	0.00340292
3594	0.00330284
3606	0.00230198
3618	0.00545469
3630	0.00345297
3642	0.00150129
3654	0.00355305
3666	0.00280241
3678	0.00200172
3690	0.00050043
3702	0.00515443
3714	0.00385331
3726	0.00770662
3738	0.00675581
3750	0.00250215
3762	0.00425366
3774	0.00415357
3786	0.00350301
3798	0.00310267
3810	0.00280241
3822	0.00575495
3834	0.00115099
3846	0.00305262
3858	0.00630542
3870	0.00555477
3882	0.00645555
3894	0.00450387
3906	0.009308
3918	0.00355305
3930	0.00725624
3942	0.00695598
3954	0.00420361
3966	0.00470404
