Infrared Spectrum: 1-Propanone, 1-phenyl-
Formula: C 9 H 10 O
CAS: 93-55-0
Origin: Sadtler Research Labs Under US-EPA Contract
1/CM	ABSORBANCE
450	0.0118017
462	0.017323
474	0.0167019
486	0.0224992
498	0.0180822
510	0.0133891
522	0.0222232
534	0.0203597
546	0.0254669
558	0.0443773
570	0.0553508
582	0.0456886
594	0.0286416
606	0.0178061
618	0.021602
630	0.017254
642	0.0222232
654	0.0373377
666	0.0326446
678	0.0841305
690	0.210568
702	0.166398
714	0.0692921
726	0.0625975
738	0.122779
750	0.13327
762	0.0545917
774	0.0253289
786	0.0244317
798	0.00434801
810	0.00269162
822	0.00200146
834	0.000966224
846	0.00151835
858	0.00200146
870	0.00282966
882	0.00503817
894	0.00697062
906	0.0110426
918	0.0247077
930	0.0874433
942	0.192831
954	0.167019
966	0.0391321
978	0.0141483
990	0.0151835
1002	0.0696371
1014	0.0920673
1026	0.0371306
1038	0.0107665
1050	0.00745373
1062	0.0211189
1074	0.0331277
1086	0.0312642
1098	0.0221541
1110	0.0133201
1122	0.00745373
1134	0.00717766
1146	0.0107665
1158	0.017323
1170	0.0412026
1182	0.099314
1194	0.0543846
1206	0.201251
1218	0.491601
1230	0.261295
1242	0.102972
1254	0.0762627
1266	0.0811628
1278	0.0988999
1290	0.0632877
1302	0.0502436
1314	0.0701893
1326	0.0974506
1338	0.103938
1350	0.154872
1362	0.115602
1374	0.055903
1386	0.0512789
1398	0.0269162
1410	0.0240176
1422	0.0313333
1434	0.0398912
1446	0.0973816
1458	0.11153
1470	0.073295
1482	0.0320234
1494	0.0153216
1506	0.00883405
1518	0.00710865
1530	0.00759176
1542	0.00876503
1554	0.0102834
1566	0.0142173
1578	0.0377518
1590	0.0569382
1602	0.0586636
1614	0.0331277
1626	0.0140793
1638	0.012975
1650	0.0169089
1662	0.0331967
1674	0.0520381
1686	0.134581
1698	0.498088
1710	0.634119
1722	0.19007
1734	0.0414096
1746	0.0286416
1758	0.0250528
1770	0.0181512
1782	0.0100073
1794	0.00855798
1806	0.017254
1818	0.0144243
1830	0.00524522
1842	0.0038649
1854	0.0038649
1866	0.00372686
1878	0.00572833
1890	0.00945519
1902	0.0120778
1914	0.00959322
1926	0.00420998
1938	0.0055903
1950	0.0105594
1962	0.0135962
1974	0.0102144
1986	0.00351982
1998	0.00103524
2010	0.000207048
2022	0.000552128
2034	0.00220851
2046	0.00110426
2058	0.00269162
2070	0.00276064
2082	0.00165638
2094	0.00207048
2106	0.00207048
2118	0.00151835
2130	0.00138032
2142	0.00144934
2154	0.0021395
2166	0.00186343
2178	0.00110426
2190	0.00151835
2202	0.0013113
2214	0.00144934
2226	0.00207048
2238	0.00138032
2250	0.00200146
2262	0.00241556
2274	0.00179442
2286	0.00234654
2298	0.00372686
2310	0.00655652
2322	0.00911011
2334	0.00676357
2346	0.00248458
2358	0.00614242
2370	0
2382	6.9016e-05
2394	0.0021395
2406	0.00234654
2418	0.00193245
2430	0.00310572
2442	0.00207048
2454	0.00220851
2466	0.00158737
2478	0.000897208
2490	0.000966224
2502	0.000414096
2514	0.00069016
2526	0.00151835
2538	0.00103524
2550	0.000897208
2562	0.000828192
2574	0.000276064
2586	0.00138032
2598	0.00227753
2610	0.000966224
2622	0.000414096
2634	0.00151835
2646	0.00165638
2658	0.00262261
2670	0.00276064
2682	0.0034508
2694	0.00455506
2706	0.00296769
2718	0.00365785
2730	0.0030367
2742	0.0030367
2754	0.0047621
2766	0.00441702
2778	0.00614242
2790	0.00496915
2802	0.00738471
2814	0.0108355
2826	0.0120088
2838	0.013044
2850	0.0124919
2862	0.0161497
2874	0.0271923
2886	0.056179
2898	0.0650821
2910	0.0761246
2922	0.0954491
2934	0.0741232
2946	0.123746
2958	0.123815
2970	0.0721907
2982	0.154941
2994	0.172195
3006	0.0715696
3018	0.0382349
3030	0.0510718
3042	0.0746063
3054	0.0692921
3066	0.102144
3078	0.130509
3090	0.0859249
3102	0.0701203
3114	0.0310572
3126	0.0117327
3138	0.00931716
3150	0.00841995
3162	0.00945519
3174	0.00766078
3186	0.00510718
3198	0.00469309
3210	0.00310572
3222	0.00351982
3234	0.00420998
3246	0.00358883
3258	0.00441702
3270	0.00414096
3282	0.00427899
3294	0.00358883
3306	0.00441702
3318	0.00420998
3330	0.00407194
3342	0.0047621
3354	0.00607341
3366	0.00531423
3378	0.0109735
3390	0.0144934
3402	0.0116637
3414	0.00793684
3426	0.00241556
3438	0.00634947
3450	0.00400293
3462	0.00358883
3474	0.00483112
3486	0.0051762
3498	0.00358883
3510	0.00441702
3522	0.00427899
3534	0.0038649
3546	0.0034508
3558	0.00262261
3570	0.00317474
3582	0.00490014
3594	0.00414096
3606	0.00179442
3618	0.00338178
3630	0.000621144
3642	0.00234654
3654	0.0021395
3666	0.00324375
3678	0.00358883
3690	0.00545226
3702	0.00503817
3714	0.00372686
3726	0.00427899
3738	0.00034508
3750	0.00427899
3762	0.00372686
3774	0.00434801
3786	0.00324375
3798	0.00448604
3810	0.00282966
3822	0.00351982
3834	0.00310572
3846	0.00628046
3858	0.00338178
3870	0.00310572
3882	0.00117327
3894	0.00579734
3906	0.000828192
3918	0.00662554
3930	0.00351982
3942	0.00579734
3954	0.00848897
3966	0.00351982
