Infrared Spectrum: 1,2-Ethanediol, 1-phenyl-
Formula: C 8 H 10 O 2
CAS: 93-56-1
Origin: Sadtler Research Labs Under US-EPA Contract
1/CM	ABSORBANCE
450	0
462	0.0118928
474	0.0147017
486	0.01261
498	0.0115343
510	0.034304
522	0.0757197
534	0.0679505
546	0.0483483
558	0.0403998
570	0.0197816
582	0.00388459
594	0.000956208
606	0.00394436
618	0.0101597
630	0.0481092
642	0.0167934
654	0.00579701
666	0.0140443
678	0.0589263
690	0.218912
702	0.346685
714	0.175584
726	0.0644245
738	0.0938279
750	0.180126
762	0.132076
774	0.0369933
786	0.00842658
798	0.00812777
810	0.0117733
822	0.0347821
834	0.0331685
846	0.0136857
858	0.0156579
870	0.0402803
882	0.0959794
894	0.0883895
906	0.0475713
918	0.0322123
930	0.021933
942	0.0266543
954	0.0435672
966	0.0650221
978	0.0727316
990	0.0783493
1002	0.129686
1014	0.218254
1026	0.3682
1038	0.493583
1050	0.588486
1062	0.560936
1074	0.401428
1086	0.287042
1098	0.205286
1110	0.122514
1122	0.0733292
1134	0.0600618
1146	0.0616754
1158	0.0775724
1170	0.103988
1182	0.127235
1194	0.144268
1206	0.137276
1218	0.110621
1230	0.105781
1242	0.106498
1254	0.109127
1266	0.104765
1278	0.11086
1290	0.11851
1302	0.122036
1314	0.118928
1326	0.123052
1338	0.125383
1350	0.129088
1362	0.135483
1374	0.146061
1386	0.144507
1398	0.119287
1410	0.0807398
1422	0.0497826
1434	0.0432684
1446	0.0750623
1458	0.0977723
1470	0.0577908
1482	0.0432086
1494	0.075899
1506	0.0405791
1518	0.0064544
1530	0.00454199
1542	0.00310768
1554	0.00149407
1566	0.000776919
1578	0.00794848
1590	0.0150603
1602	0.0276703
1614	0.0160762
1626	0.00221123
1638	0.00358578
1650	0.00854611
1662	0.0071118
1674	0.00681298
1686	0.00884492
1698	0.0169727
1710	0.0228295
1722	0.019423
1734	0.0271922
1746	0.0272519
1758	0.0147017
1770	0.00962184
1782	0.00490057
1794	0.0126698
1806	0.0159567
1818	0.00585677
1830	0.00185265
1842	0.000179289
1854	0.00334673
1866	0.00860587
1878	0.0123112
1890	0.0125502
1902	0.00555796
1914	0.00292839
1926	0.00561772
1938	0.0144029
1950	0.0191839
1962	0.016136
1974	0.00681298
1986	0.00364554
1998	0.00316744
2010	0.00280886
2022	0.0027491
2034	0.00316744
2046	0.00400412
2058	0.00448222
2070	0.00496033
2082	0.00507985
2094	0.00478104
2106	0.00400412
2118	0.00346625
2130	0.0027491
2142	0.00197218
2154	0.00149407
2166	0.00149407
2178	0.00131479
2190	0.0011355
2202	0.00059763
2214	0.000896445
2226	0.00107573
2238	0.00119526
2250	0.00155384
2262	0.00137455
2274	0.00203194
2286	0.00245028
2298	0.00280886
2310	0.00430294
2322	0.00627511
2334	0.00579701
2346	0.00591654
2358	0.00239052
2370	0.00430294
2382	0.00340649
2394	0.00167336
2406	0.00125502
2418	0.00227099
2430	0.0027491
2442	0.00286862
2454	0.00251005
2466	0.00215147
2478	0.0020917
2490	0.00197218
2502	0.00215147
2514	0.00245028
2526	0.00233076
2538	0.00215147
2550	0.00221123
2562	0.00239052
2574	0.00262957
2586	0.00358578
2598	0.00448222
2610	0.00430294
2622	0.00430294
2634	0.00478104
2646	0.00454199
2658	0.00502009
2670	0.00555796
2682	0.00627511
2694	0.00723132
2706	0.00896445
2718	0.0111159
2730	0.0118928
2742	0.0123112
2754	0.0131479
2766	0.0148212
2778	0.0166141
2790	0.0184668
2802	0.0224111
2814	0.0265945
2826	0.0302998
2838	0.0356187
2850	0.0511571
2862	0.0813972
2874	0.144208
2886	0.200983
2898	0.182516
2910	0.141937
2922	0.148989
2934	0.18413
2946	0.17648
2958	0.138949
2970	0.107573
2982	0.0608985
2994	0.0296424
3006	0.0297022
3018	0.0585677
3030	0.138292
3042	0.167097
3054	0.117673
3066	0.162197
3078	0.199549
3090	0.118809
3102	0.076915
3114	0.0384874
3126	0.0153591
3138	0.00603606
3150	0.00364554
3162	0.00340649
3174	0.00346625
3186	0.00173313
3198	0.000836682
3210	0.000657393
3222	0.000836682
3234	0.000776919
3246	0.000896445
3258	0.00119526
3270	0.00149407
3282	0.00197218
3294	0.00221123
3306	0.00197218
3318	0.00239052
3330	0.00340649
3342	0.00376507
3354	0.00424317
3366	0.00543843
3378	0.00621535
3390	0.00717156
3402	0.008068
3414	0.00860587
3426	0.00878516
3438	0.00998042
3450	0.00986089
3462	0.0107573
3474	0.0108171
3486	0.0120721
3498	0.0134467
3510	0.0163751
3522	0.0188253
3534	0.0191839
3546	0.0201999
3558	0.018407
3570	0.0230088
3582	0.0294632
3594	0.0510974
3606	0.08068
3618	0.125502
3630	0.163033
3642	0.149706
3654	0.144626
3666	0.107753
3678	0.0723132
3690	0.0496631
3702	0.0244431
3714	0.0155981
3726	0.0123112
3738	0.00914374
3750	0.00609583
3762	0.00376507
3774	0.00430294
3786	0.00179289
3798	0.00280886
3810	0.000478104
3822	0.00227099
3834	0.00227099
3846	0.00143431
3858	0.00388459
3870	0.00328696
3882	0.00239052
3894	0.00298815
3906	0.00310768
3918	0.00233076
3930	0.00292839
3942	0.00059763
3954	0.000657393
3966	0.000298815
