Infrared Spectrum: Benzoic acid, methyl ester
Formula: C 8 H 8 O 2
CAS: 93-58-3
Origin: Sadtler Research Labs Under US-EPA Contract
1/CM	ABSORBANCE
450	0.0309622
462	0.0249501
474	0.0132266
486	0.000901812
498	0.0111223
510	0.0156314
522	0.00511027
534	0.00420846
546	0.00420846
558	0.00390785
570	0.00390785
582	0.00420846
594	0.00360725
606	0.00811631
618	0.0126254
630	0.00450906
642	0.00511027
654	0.0138278
666	0.0438882
678	0.129861
690	0.202607
702	0.470445
714	0.711229
726	0.291886
738	0.0489985
750	0.0168338
762	0.0156314
774	0.0126254
786	0.0156314
798	0.0249501
810	0.0526057
822	0.0718444
834	0.0363731
846	0.0117236
858	0.00871752
870	0.0078157
882	0.00571148
894	0.00871752
906	0.0243489
918	0.0231465
930	0.0189381
942	0.0195393
954	0.0234471
966	0.0541087
978	0.0571148
990	0.0219441
1002	0.0180362
1014	0.0351707
1026	0.21884
1038	0.126254
1050	0.0363731
1062	0.142486
1074	0.186074
1086	0.219441
1098	0.600607
1110	1.02446
1122	0.589785
1134	0.254912
1146	0.180964
1158	0.130462
1170	0.214631
1182	0.352007
1194	0.215232
1206	0.116634
1218	0.0613232
1230	0.118438
1242	0.30842
1254	0.473752
1266	1.52286
1278	1.9921
1290	1.42216
1302	0.413932
1314	0.332769
1326	0.21914
1338	0.0841691
1350	0.0402809
1362	0.0267538
1374	0.0282568
1386	0.0363731
1398	0.0339683
1410	0.0378761
1422	0.0583172
1434	0.239882
1446	0.409423
1458	0.210723
1470	0.0874758
1482	0.0535075
1494	0.0465936
1506	0.0381767
1518	0.0255513
1530	0.0189381
1542	0.0255513
1554	0.0264532
1566	0.030361
1578	0.0520045
1590	0.0673353
1602	0.0898806
1614	0.0802613
1626	0.0465936
1638	0.0505015
1650	0.043287
1662	0.0198399
1674	0.017435
1686	0.0396797
1698	0.0673353
1710	0.0673353
1722	0.141885
1734	0.68177
1746	1.61665
1758	1.08909
1770	0.180362
1782	0.0664335
1794	0.0673353
1806	0.0583172
1818	0.0351707
1830	0.0138278
1842	0.00931872
1854	0.00571148
1866	0.00511027
1878	0.00571148
1890	0.0105211
1902	0.0228459
1914	0.0321646
1926	0.030361
1938	0.0237477
1950	0.0231465
1962	0.0234471
1974	0.0201405
1986	0.0072145
1998	0.00450906
2010	0.00601208
2022	0.00541087
2034	0.00511027
2046	0.00661329
2058	0.00931872
2070	0.015932
2082	0.0201405
2094	0.0195393
2106	0.0147296
2118	0.00601208
2130	0.00300604
2142	0.00300604
2154	0.00180362
2166	0.00180362
2178	0.00150302
2190	0
2202	0.000601208
2214	0.00180362
2226	0.00210423
2238	0.00360725
2250	0.00571148
2262	0.00511027
2274	0.00330664
2286	0.00240483
2298	0.00240483
2310	0.00450906
2322	0.00571148
2334	0.00480966
2346	0.00511027
2358	0.00360725
2370	0.00420846
2382	0.00480966
2394	0.00390785
2406	0.00330664
2418	0.00270544
2430	0.00120242
2442	0.000901812
2454	0.000901812
2466	0.000601208
2478	0.000601208
2490	0.000601208
2502	0
2514	0.000901812
2526	0.00180362
2538	0.00270544
2550	0.00511027
2562	0.00511027
2574	0.00360725
2586	0.00360725
2598	0.00511027
2610	0.00511027
2622	0.00210423
2634	0.00150302
2646	0.00120242
2658	0.00210423
2670	0.000901812
2682	0.000601208
2694	0.000601208
2706	0.00120242
2718	0.00120242
2730	0.00120242
2742	0.00120242
2754	0.00180362
2766	0.00270544
2778	0.00300604
2790	0.00240483
2802	0.00240483
2814	0.00330664
2826	0.00601208
2838	0.0183368
2850	0.063728
2862	0.0465936
2874	0.0225453
2886	0.0270544
2898	0.0405815
2910	0.0544093
2922	0.062225
2934	0.0483972
2946	0.0718444
2958	0.304211
2970	0.263329
2982	0.0655317
2994	0.0784576
3006	0.0998005
3018	0.0919848
3030	0.102807
3042	0.115131
3054	0.114831
3066	0.132266
3078	0.198699
3090	0.130162
3102	0.0856721
3114	0.0526057
3126	0.0195393
3138	0.00871752
3150	0.0078157
3162	0.00871752
3174	0.00871752
3186	0.00601208
3198	0.00450906
3210	0.00330664
3222	0.00270544
3234	0.00300604
3246	0.00300604
3258	0.00210423
3270	0.00270544
3282	0.00210423
3294	0.00240483
3306	0.00210423
3318	0.00210423
3330	0.00210423
3342	0.00360725
3354	0.00390785
3366	0.00270544
3378	0.00270544
3390	0.00240483
3402	0.00240483
3414	0.00240483
3426	0.00270544
3438	0.00210423
3450	0.00270544
3462	0.00871752
3474	0.0171344
3486	0.0123248
3498	0.00270544
3510	0
3522	0.000601208
3534	0.00180362
3546	0.00120242
3558	0.00180362
3570	0.00120242
3582	0.00120242
3594	0.000901812
3606	0.00150302
3618	0.000901812
3630	0.00150302
3642	0.00270544
3654	0.00420846
3666	0.00240483
3678	0.00390785
3690	0.00511027
3702	0.00270544
3714	0.00360725
3726	0.00300604
3738	0.00480966
3750	0.00240483
3762	0.00180362
3774	0.00360725
3786	0.00330664
3798	0.00300604
3810	0.00180362
3822	0.00180362
3834	0.00240483
3846	0.00210423
3858	0.00210423
3870	0.00120242
3882	0.00180362
3894	0.00450906
3906	0.00180362
3918	0.00300604
3930	0.00270544
3942	0.00270544
3954	0.00420846
3966	0.00240483
