Infrared Spectrum: Benzenemethanol, .alpha.-ethyl-
Formula: C 9 H 12 O
CAS: 93-54-9
Origin: Sadtler Research Labs Under US-EPA Contract
1/CM	ABSORBANCE
450	0.00730139
462	0.0223448
474	0.0472072
486	0.0570893
498	0.0446895
510	0.0464519
522	0.0626912
534	0.0867984
546	0.0616212
558	0.0172464
570	0.00365069
582	0.00264361
594	0.00723844
606	0.0208341
618	0.0246107
630	0.0351222
642	0.00893791
654	0.0276949
666	0.0348704
678	0.0638242
690	0.319499
702	0.521231
714	0.218979
726	0.0786158
738	0.149741
750	0.259451
762	0.253031
774	0.111157
786	0.017624
798	0.00969322
810	0.00937851
822	0.015484
834	0.0311568
846	0.0181905
858	0.00780493
870	0.0221559
882	0.0412906
894	0.0749651
906	0.071755
918	0.0479626
930	0.0300238
942	0.0406612
954	0.085036
966	0.21281
978	0.293566
990	0.20702
1002	0.230497
1014	0.322016
1026	0.273236
1038	0.252779
1050	0.206579
1062	0.160001
1074	0.165918
1086	0.191536
1098	0.187885
1110	0.145776
1122	0.0934704
1134	0.0427383
1146	0.0338633
1158	0.0509838
1170	0.0913303
1182	0.116382
1194	0.104611
1206	0.109332
1218	0.142755
1230	0.164596
1242	0.126327
1254	0.113046
1266	0.134572
1278	0.136838
1290	0.153329
1302	0.155658
1314	0.143006
1326	0.138412
1338	0.107066
1350	0.112605
1362	0.159623
1374	0.19185
1386	0.181087
1398	0.112668
1410	0.0572152
1422	0.0422348
1434	0.056334
1446	0.141559
1458	0.21237
1470	0.144014
1482	0.091708
1494	0.122676
1506	0.0604253
1518	0.0122109
1530	0.00944145
1542	0.0129033
1554	0.00610547
1566	0.00321009
1578	0.00818259
1590	0.0202676
1602	0.0448784
1614	0.028765
1626	0.00289538
1638	0.00100709
1650	0.00358775
1662	0.00478367
1674	0.00566487
1686	0.00509838
1698	0.0122109
1710	0.0166799
1722	0.00528721
1734	0.00440601
1746	0.00874908
1758	0.00811965
1770	0.00415424
1782	0.00270655
1794	0.0153581
1806	0.0248625
1818	0.0080567
1830	0.00207712
1842	0
1854	0.00308421
1866	0.00981911
1878	0.0164281
1890	0.0173723
1902	0.00906379
1914	0.00220301
1926	0.00610547
1938	0.0200788
1950	0.0274431
1962	0.019827
1974	0.00478367
1986	0.00138475
1998	0.00107003
2010	0.00144769
2022	0.0017624
2034	0.00119592
2046	0.000944145
2058	0.00062943
2070	0.000881202
2082	0.0013218
2094	0.00113297
2106	0.000944145
2118	0.000944145
2130	0.00119592
2142	0.00125886
2154	0.00113297
2166	0.000818259
2178	0.000818259
2190	0.00100709
2202	0.000881202
2214	0.00107003
2226	0.00157358
2238	0.00157358
2250	0.00207712
2262	0.00207712
2274	0.00239183
2286	0.00270655
2298	0.00258066
2310	0.00472072
2322	0.00579076
2334	0.00547604
2346	0.00459484
2358	0.00440601
2370	0.00125886
2382	0.00295832
2394	0.00421718
2406	0.00434307
2418	0.00509838
2430	0.00484661
2442	0.00365069
2454	0.00333598
2466	0.00365069
2478	0.00333598
2490	0.00302126
2502	0.00276949
2514	0.00295832
2526	0.00321009
2538	0.00352481
2550	0.00421718
2562	0.00610547
2574	0.00749022
2586	0.00893791
2598	0.00994499
2610	0.00925262
2622	0.0080567
2634	0.00862319
2646	0.00837142
2658	0.00887496
2670	0.00931556
2682	0.0103856
2694	0.0122109
2706	0.0117703
2718	0.0112668
2730	0.0137216
2742	0.0168687
2754	0.0186941
2766	0.0174982
2778	0.0194494
2790	0.0224077
2802	0.026499
2814	0.0319121
2826	0.0402206
2838	0.0581593
2850	0.0961769
2862	0.188955
2874	0.317044
2886	0.421466
2898	0.30093
2910	0.201858
2922	0.246988
2934	0.417186
2946	0.509146
2958	0.377973
2970	0.540492
2982	0.577628
2994	0.219419
3006	0.0963657
3018	0.109521
3030	0.250073
3042	0.313645
3054	0.19292
3066	0.255486
3078	0.336179
3090	0.206201
3102	0.134446
3114	0.0734545
3126	0.0327304
3138	0.0157357
3150	0.0117703
3162	0.0125257
3174	0.0135327
3186	0.00912674
3198	0.00635724
3210	0.0054131
3222	0.00402835
3234	0.00327304
3246	0.00245478
3258	0.0017624
3270	0.00214006
3282	0.00201418
3294	0.0013218
3306	0.00151063
3318	0.00144769
3330	0.00151063
3342	0.00226595
3354	0.00214006
3366	0.00283243
3378	0.00478367
3390	0.00390247
3402	0.00421718
3414	0.00396541
3426	0.00402835
3438	0.00402835
3450	0.00440601
3462	0.00390247
3474	0.00358775
3486	0.00308421
3498	0.00276949
3510	0.00251772
3522	0.0017624
3534	0.00207712
3546	0.00295832
3558	0.0017624
3570	0.0017624
3582	0.00314715
3594	0.00251772
3606	0.00579076
3618	0.0125257
3630	0.0310938
3642	0.128593
3654	0.185808
3666	0.089442
3678	0.0207712
3690	0.011078
3702	0.00774199
3714	0.00333598
3726	0.00352481
3738	0.00264361
3750	0.00239183
3762	0.00276949
3774	0.00383952
3786	0.00251772
3798	0.00295832
3810	0.00201418
3822	0.00163652
3834	0.00415424
3846	0.00472072
3858	0.00371364
3870	0.0049725
3882	0.00396541
3894	0.00396541
3906	0.00434307
3918	0.00415424
3930	0.00377658
3942	0.00365069
3954	0.00371364
3966	0.00295832
