Infrared Spectrum: Formamide, N-methyl-N-phenyl-
Formula: C 8 H 9 N O
CAS: 93-61-8
Origin: Sadtler Research Labs Under US-EPA Contract
1/CM	ABSORBANCE
450	0.00051639
462	0.00036885
474	0.00022131
486	0.00118032
498	0.00250818
510	0.00627045
522	0.0144589
534	0.0253769
546	0.0139425
558	0.00420489
570	0.00634422
582	0.00177048
594	0.00199179
606	0.00199179
618	0.00140163
630	0.0022131
642	0.00154917
654	0.00354096
666	0.0154179
678	0.0317949
690	0.047803
702	0.0419751
714	0.0140163
726	0.00472128
738	0.00973764
750	0.0243441
762	0.040426
774	0.0160819
786	0.00309834
798	0.00132786
810	0.00472128
822	0.0106229
834	0.00361473
846	0.00051639
858	0.00044262
870	0.0014754
882	0.00140163
894	0.00154917
906	0.00243441
918	0.00250818
930	0.0014754
942	0.00250818
954	0.010918
966	0.0479505
978	0.0491308
990	0.00656553
1002	0.00708192
1014	0.00848355
1026	0.0213195
1038	0.017631
1050	0.014754
1062	0.0116557
1074	0.0116557
1086	0.0155655
1098	0.0296555
1110	0.0630734
1122	0.0676471
1134	0.0348932
1146	0.0199917
1158	0.0163769
1170	0.0132786
1182	0.0113606
1194	0.00907371
1206	0.00907371
1218	0.0125409
1230	0.0160081
1242	0.0215408
1254	0.0386555
1266	0.0568767
1278	0.0521554
1290	0.0536308
1302	0.0842453
1314	0.116114
1326	0.115893
1338	0.10586
1350	0.0736225
1362	0.040721
1374	0.0228687
1386	0.0115819
1398	0.0081147
1410	0.010918
1422	0.0130573
1434	0.0088524
1446	0.0112868
1458	0.0115081
1470	0.012172
1482	0.0278113
1494	0.119434
1506	0.106671
1518	0.0290654
1530	0.0118032
1542	0.00604914
1554	0.00767208
1566	0.00944256
1578	0.0239752
1590	0.0651389
1602	0.111762
1614	0.0470653
1626	0.00767208
1638	0.00627045
1650	0.00627045
1662	0.0124671
1674	0.0213195
1686	0.0456636
1698	0.177343
1710	0.707454
1722	0.452284
1734	0.0720733
1746	0.0208031
1758	0.00826224
1770	0.00708192
1782	0.0106229
1794	0.0118032
1806	0.00789339
1818	0.00464751
1830	0.00243441
1842	0.00184425
1854	0.00302457
1866	0.00236064
1878	0.00302457
1890	0.00213933
1902	0.00162294
1914	0.00184425
1926	0.00302457
1938	0.00405735
1950	0.00449997
1962	0.00280326
1974	0.00177048
1986	0.00236064
1998	0.00265572
2010	0.00243441
2022	0.00169671
2034	0.00103278
2046	0.00088524
2058	0.00059016
2070	0.00044262
2082	0.00088524
2094	0.0014754
2106	0.0014754
2118	0.0014754
2130	0.00162294
2142	0.00154917
2154	0.00118032
2166	0.00103278
2178	0.0007377
2190	0.00118032
2202	0.00103278
2214	0.00118032
2226	0.00206556
2238	0.0022131
2250	0.00199179
2262	0.00154917
2274	0.0014754
2286	0.00154917
2298	0.00154917
2310	0.00184425
2322	0.00331965
2334	0.00272949
2346	0.00184425
2358	0.00346719
2370	0.00014754
2382	0.00014754
2394	0.00140163
2406	0.00095901
2418	0.00110655
2430	0.00059016
2442	0.00014754
2454	0.0007377
2466	0.00066393
2478	0.00044262
2490	0.00044262
2502	0.00029508
2514	0.00088524
2526	0.00132786
2538	0.00132786
2550	0.00059016
2562	0.00140163
2574	0.00103278
2586	0.0014754
2598	0.00199179
2610	0.00258195
2622	0.00206556
2634	0.00162294
2646	0.00110655
2658	0.0022131
2670	0.00228687
2682	0.00228687
2694	0.00287703
2706	0.00250818
2718	0.00324588
2730	0.00287703
2742	0.00339342
2754	0.00464751
2766	0.00678684
2778	0.00789339
2790	0.00752454
2802	0.00759831
2814	0.00877863
2826	0.0100327
2838	0.0120245
2850	0.0171884
2862	0.0300244
2874	0.0458849
2886	0.0334916
2898	0.0194753
2910	0.0171146
2922	0.0183687
2934	0.0219097
2946	0.0245654
2958	0.0234589
2970	0.0188851
2982	0.0141638
2994	0.0101803
3006	0.00914748
3018	0.00929502
3030	0.0138688
3042	0.0234589
3054	0.0287703
3066	0.0242703
3078	0.0298768
3090	0.0247129
3102	0.0163032
3114	0.0113606
3126	0.00627045
3138	0.00449997
3150	0.00398358
3162	0.00435243
3174	0.00376227
3186	0.00331965
3198	0.00339342
3210	0.00354096
3222	0.00398358
3234	0.00361473
3246	0.00331965
3258	0.00317211
3270	0.00272949
3282	0.00324588
3294	0.00376227
3306	0.00420489
3318	0.00376227
3330	0.00331965
3342	0.00331965
3354	0.00354096
3366	0.00390981
3378	0.00354096
3390	0.00560652
3402	0.00892617
3414	0.0088524
3426	0.00479505
3438	0.00324588
3450	0.00280326
3462	0.00243441
3474	0.00272949
3486	0.00346719
3498	0.00250818
3510	0.00280326
3522	0.00199179
3534	0.00206556
3546	0.00206556
3558	0.00213933
3570	0.00206556
3582	0.00132786
3594	0.00132786
3606	0.00132786
3618	0.00125409
3630	0.0022131
3642	0.00051639
3654	0.00088524
3666	7.377e-05
3678	0.00140163
3690	0.00044262
3702	0.00081147
3714	0.00103278
3726	0.0007377
3738	0.00154917
3750	0.00029508
3762	0.00029508
3774	0.00029508
3786	0.00014754
3798	0.00022131
3810	0.00014754
3822	0.00014754
3834	0.00014754
3846	0.00103278
3858	0.00095901
3870	0.0014754
3882	0.00154917
3894	0.0014754
3906	0.00169671
3918	0.00206556
3930	0.00125409
3942	0.00184425
3954	0.00162294
3966	0.00177048
