Infrared Spectrum: Benzoic acid, ethyl ester
Formula: C 9 H 10 O 2
CAS: 93-89-0
Origin: Sadtler Research Labs Under US-EPA Contract
1/CM	ABSORBANCE
450	0
462	0.0134295
474	0.00297293
486	0.0054333
498	0.00789365
510	0.00656096
522	0.00779114
534	0.0125068
546	0.0061509
558	0.0108666
570	0.00399809
582	0.00738108
594	0.00697102
606	0.00707354
618	0.00912384
630	0.00902132
642	0.0145571
654	0.0106616
666	0.0201955
678	0.044184
690	0.0492072
702	0.130399
714	0.191498
726	0.068685
738	0.0170175
750	0.0113792
762	0.0112767
774	0.0112767
786	0.0100465
798	0.0126093
810	0.00932887
822	0.00809868
834	0.0130194
846	0.0191703
858	0.0172225
870	0.0174275
882	0.0144546
894	0.00891881
906	0.00799617
918	0.00850874
930	0.010559
942	0.0110716
954	0.00932887
966	0.00871377
978	0.00994396
990	0.0119943
1002	0.020503
1014	0.0246036
1026	0.0911358
1038	0.0724781
1050	0.0196829
1062	0.0569983
1074	0.0728882
1086	0.0730932
1098	0.228506
1110	0.457524
1122	0.217844
1134	0.0625341
1146	0.0373155
1158	0.0377255
1170	0.0785265
1182	0.109794
1194	0.0309595
1206	0.0245011
1218	0.0262438
1230	0.0533078
1242	0.126504
1254	0.164229
1266	0.596842
1278	0.9742
1290	0.165767
1302	0.0760661
1314	0.0883679
1326	0.0409035
1338	0.0190678
1350	0.0174275
1362	0.034445
1374	0.0634568
1386	0.0279866
1398	0.0256288
1410	0.0215281
1422	0.0187602
1434	0.0188628
1446	0.0437739
1458	0.0546405
1470	0.0367004
1482	0.0281916
1494	0.0175301
1506	0.0095339
1518	0.0074836
1530	0.00727856
1542	0.0054333
1554	0.00943138
1566	0.010149
1578	0.0156848
1590	0.0226558
1602	0.0289092
1614	0.0241935
1626	0.00943138
1638	0.010149
1650	0.00881629
1662	0.00840623
1674	0.00840623
1686	0.013532
1698	0.0195804
1710	0.0277816
1722	0.0795516
1734	0.337069
1746	0.482538
1758	0.150492
1770	0.0299344
1782	0.0198879
1794	0.0178376
1806	0.0141471
1818	0.0134295
1830	0.0074836
1842	0.00584336
1854	0.00625342
1866	0.00604838
1878	0.00707354
1890	0.00809868
1902	0.0102515
1914	0.0106616
1926	0.00932887
1938	0.0074836
1950	0.00963641
1962	0.0112767
1974	0.0107641
1986	0.00717605
1998	0.00635593
2010	0.0054333
2022	0.00563833
2034	0.00604838
2046	0.00389557
2058	0.00420312
2070	0.00348551
2082	0.00266539
2094	0.0041006
2106	0.0054333
2118	0.00635593
2130	0.00645845
2142	0.0054333
2154	0.00461317
2166	0.00399809
2178	0.00358803
2190	0.00348551
2202	0.0041006
2214	0.00420312
2226	0.00379306
2238	0.00471569
2250	0.00522827
2262	0.0048182
2274	0.00512575
2286	0.00461317
2298	0.00451066
2310	0.00420312
2322	0.00399809
2334	0.00307545
2346	0.00656096
2358	0.00276791
2370	0.00789365
2382	0.00779114
2394	0.00533078
2406	0.00522827
2418	0.00502324
2430	0.00451066
2442	0.00512575
2454	0.00512575
2466	0.00461317
2478	0.00471569
2490	0.00451066
2502	0.00461317
2514	0.00461317
2526	0.0048182
2538	0.00502324
2550	0.00553581
2562	0.00512575
2574	0.0048182
2586	0.00574084
2598	0.00635593
2610	0.00738108
2622	0.00697102
2634	0.00697102
2646	0.00625342
2658	0.00553581
2670	0.00317797
2682	0.00276791
2694	0.00348551
2706	0.00420312
2718	0.00492072
2730	0.00574084
2742	0.00522827
2754	0.00522827
2766	0.0061509
2778	0.00574084
2790	0.00563833
2802	0.0061509
2814	0.00625342
2826	0.00768863
2838	0.00861126
2850	0.00943138
2862	0.0114817
2874	0.0145571
2886	0.0228608
2898	0.0231684
2910	0.0264489
2922	0.0282941
2934	0.0300369
2946	0.0488997
2958	0.0416211
2970	0.0493097
2982	0.0881629
2994	0.0938012
3006	0.0524877
3018	0.0305495
3030	0.0237835
3042	0.0293193
3054	0.0313696
3066	0.0390582
3078	0.0578185
3090	0.0347526
3102	0.0278841
3114	0.0172225
3126	0.00973893
3138	0.00881629
3150	0.00799617
3162	0.00871377
3174	0.00912384
3186	0.0074836
3198	0.00738108
3210	0.0082012
3222	0.00799617
3234	0.00676599
3246	0.00625342
3258	0.00502324
3270	0.00799617
3282	0.00768863
3294	0.00758611
3306	0.00738108
3318	0.00625342
3330	0.00471569
3342	0.00758611
3354	0.00686851
3366	0.0061509
3378	0.00717605
3390	0.00604838
3402	0.00666348
3414	0.00584336
3426	0.00604838
3438	0.00553581
3450	0.00686851
3462	0.00912384
3474	0.00809868
3486	0.00604838
3498	0.00604838
3510	0.00399809
3522	0.00594587
3534	0.00420312
3546	0.00276791
3558	0.00502324
3570	0.00727856
3582	0.0061509
3594	0.00430563
3606	0.00604838
3618	0.00533078
3630	0.00594587
3642	0.00451066
3654	0.00563833
3666	0.0048182
3678	0.00533078
3690	0.00625342
3702	0.00471569
3714	0.00645845
3726	0.0061509
3738	0.0061509
3750	0.00574084
3762	0.0061509
3774	0.0048182
3786	0.00533078
3798	0.00635593
3810	0.00563833
3822	0.0048182
3834	0.0074836
3846	0.00348551
3858	0.00369054
3870	0.00502324
3882	0.00666348
3894	0.00399809
3906	0.00861126
3918	0.00594587
3930	0.00932887
3942	0.00871377
3954	0.00768863
3966	0.00645845
