Infrared Spectrum: Benzoic acid, phenyl ester
Formula: C 13 H 10 O 2
CAS: 93-99-2
Origin: Sadtler Research Labs Under US-EPA Contract
1/CM	ABSORBANCE
450	0.0491933
462	0.0036075
474	0.0080021
486	0.00531287
498	0.0193493
510	0.0200053
522	0.0114128
534	0.0146924
546	0.0135117
558	0.0112161
570	0.0286633
582	0.0224321
594	0.0105602
606	0.0112161
618	0.0152171
630	0.011872
642	0.0143644
654	0.016201
666	0.0217762
678	0.0581792
690	0.0926801
702	0.134068
714	0.0956973
726	0.0440772
738	0.0585072
750	0.0579824
762	0.0346976
774	0.02053
786	0.0145612
798	0.017316
810	0.0211203
822	0.0212515
834	0.0166601
846	0.018759
858	0.0132494
870	0.0094451
882	0.0104946
894	0.0142332
906	0.0197429
918	0.0171848
930	0.0131838
942	0.0137085
954	0.0125935
966	0.0135773
978	0.0131838
990	0.0175128
1002	0.0415191
1014	0.0401417
1026	0.133806
1038	0.0283353
1050	0.0987145
1062	0.268398
1074	0.1992
1086	0.0833662
1098	0.0350912
1110	0.0192838
1122	0.0157418
1134	0.0180375
1146	0.02886
1158	0.0929424
1170	0.118916
1182	0.206153
1194	0.433884
1206	0.491736
1218	0.105536
1230	0.177096
1242	0.220123
1254	0.401679
1266	0.466549
1278	0.125016
1290	0.0582448
1302	0.0474223
1314	0.0528663
1326	0.0273514
1338	0.0205956
1350	0.018759
1362	0.0181031
1374	0.0164633
1386	0.0154139
1398	0.0118064
1410	0.011872
1422	0.0118064
1434	0.0139053
1446	0.0284009
1458	0.0390266
1470	0.02886
1482	0.0504395
1494	0.156762
1506	0.0583104
1518	0.0184311
1530	0.0157418
1542	0.0171848
1554	0.0150859
1566	0.0180375
1578	0.0347632
1590	0.0718221
1602	0.0590975
1614	0.0168569
1626	0.0123311
1638	0.0123967
1650	0.0135773
1662	0.00911715
1674	0.0110849
1686	0.0120032
1698	0.0139709
1710	0.0162666
1722	0.0231536
1734	0.0391578
1746	0.122262
1758	0.285977
1770	0.179719
1782	0.0394202
1794	0.0183655
1806	0.0185623
1818	0.0153483
1830	0.0113472
1842	0.00898597
1854	0.00714942
1866	0.00806769
1878	0.00793651
1890	0.00767415
1902	0.00924833
1914	0.0110193
1926	0.0106913
1938	0.00924833
1950	0.0107569
1962	0.00905156
1974	0.00905156
1986	0.00714942
1998	0.00662469
2010	0.00767415
2022	0.00721501
2034	0.00491933
2046	0.00491933
2058	0.00472255
2070	0.00465696
2082	0.0043946
2094	0.0043946
2106	0.00498492
2118	0.0043946
2130	0.00400105
2142	0.00380428
2154	0.00380428
2166	0.00327955
2178	0.0036075
2190	0.00334514
2202	0.00282041
2214	0.002886
2226	0.00262364
2238	0.00295159
2250	0.002886
2262	0.00321396
2274	0.00354191
2286	0.0043946
2298	0.00596878
2310	0.0080021
2322	0.0087236
2334	0.00642792
2346	0.00544405
2358	0.00662469
2370	0.00163977
2382	0.00400105
2394	0.00354191
2406	0.00262364
2418	0.00236128
2430	0.00196773
2442	0.001443
2454	0.00137741
2466	0.00157418
2478	0.00118064
2490	0.00137741
2502	0.00137741
2514	0.00124623
2526	0.00111505
2538	0.00150859
2550	0.00163977
2562	0.0021645
2574	0.0021645
2586	0.00150859
2598	0.00124623
2610	0.00137741
2622	0.00150859
2634	0.00104946
2646	0.000918274
2658	0.000852683
2670	0.000524728
2682	0.000327955
2694	0.000524728
2706	0
2718	0.000393546
2730	0.000393546
2742	0.000196773
2754	0.000852683
2766	0.000721501
2778	0.000590319
2790	0.00065591
2802	0.000721501
2814	0.00065591
2826	0.000852683
2838	0.00111505
2850	0.00177096
2862	0.00209891
2874	0.00163977
2886	0.00131182
2898	0.00131182
2910	0.00150859
2922	0.001443
2934	0.00150859
2946	0.00190214
2958	0.00131182
2970	0.00111505
2982	0.00118064
2994	0.00137741
3006	0.00327955
3018	0.00636233
3030	0.0122655
3042	0.027417
3054	0.0358127
3066	0.036731
3078	0.0635577
3090	0.0379116
3102	0.0255805
3114	0.0127902
3126	0.00373869
3138	0.00196773
3150	0.001443
3162	0.00177096
3174	0.00177096
3186	0.000590319
3198	0.000852683
3210	0.000787092
3222	0.00157418
3234	0.000983865
3246	0.00104946
3258	0.00150859
3270	0.001443
3282	0.00118064
3294	0.00104946
3306	0.000983865
3318	0.000262364
3330	0.000852683
3342	0.000918274
3354	0.00118064
3366	0.00104946
3378	0.00104946
3390	0.000787092
3402	0.00104946
3414	0.000524728
3426	0.000983865
3438	0.00157418
3450	0.000524728
3462	0.001443
3474	0.00137741
3486	0.00190214
3498	0.00262364
3510	0.000721501
3522	0.000196773
3534	0.000524728
3546	0.00170537
3558	0.00131182
3570	0.000590319
3582	0.00177096
3594	0.00190214
3606	0.00104946
3618	0.00131182
3630	0.00229568
3642	0.00177096
3654	0.00157418
3666	0.00223009
3678	0.00242687
3690	0.00262364
3702	0.00301719
3714	0.00229568
3726	0.00242687
3738	0.00170537
3750	0.00268923
3762	0.00255805
3774	0.00275482
3786	0.00321396
3798	0.00262364
3810	0.00327955
3822	0.00446019
3834	0.00419782
3846	0.0036075
3858	0.001443
3870	0.00354191
3882	0.00314837
3894	0.00452578
3906	0.00249246
3918	0.00229568
3930	0.00236128
3942	0.00347632
3954	0.00196773
3966	0.00341073
