Infrared Spectrum: Benzenemethanol, .alpha.-methyl-, acetate
Formula: C 10 H 12 O 2
CAS: 93-92-5
Origin: Sadtler Research Labs Under US-EPA Contract
1/CM	ABSORBANCE
450	0.0028496
462	7.124e-05
474	0.00199472
486	0.00619788
498	0.00876252
510	0.0096174
522	0.0152454
534	0.0267862
546	0.0135356
558	0.0039182
570	0.00505804
582	0.0108285
594	0.010971
606	0.0149604
618	0.0173113
630	0.0135356
642	0.0116121
654	0.00691028
666	0.0110422
678	0.019591
690	0.0678917
702	0.0735909
714	0.0236517
726	0.0173826
738	0.0230818
750	0.0376147
762	0.0451662
774	0.0173826
786	0.00933244
798	0.00619788
810	0.00413192
822	0.00598416
834	0.007124
846	0.0121108
858	0.0143192
870	0.0092612
882	0.00612664
894	0.00662532
906	0.00812136
918	0.0126095
930	0.0331978
942	0.0651846
954	0.0285672
966	0.0168839
978	0.0164564
990	0.0286385
1002	0.0507229
1014	0.0766542
1026	0.116192
1038	0.089335
1050	0.0722374
1062	0.15452
1074	0.176248
1086	0.0711688
1098	0.0440976
1110	0.0265725
1122	0.0190923
1134	0.012467
1146	0.0113272
1158	0.0118258
1170	0.016029
1182	0.0312744
1194	0.0492981
1206	0.14248
1218	0.235519
1230	0.549474
1242	0.61701
1254	0.189997
1266	0.0760131
1278	0.0454511
1290	0.030562
1302	0.0250052
1314	0.0204459
1326	0.019876
1338	0.0177388
1350	0.0288522
1362	0.0790052
1374	0.142622
1386	0.0829946
1398	0.0279973
1410	0.0150316
1422	0.0155303
1434	0.0190211
1446	0.0279261
1458	0.0377572
1470	0.021087
1482	0.0150316
1494	0.0277836
1506	0.019306
1518	0.0116121
1530	0.0096174
1542	0.00954616
1554	0.00755144
1566	0.00691028
1578	0.00911872
1590	0.0105435
1602	0.0114696
1614	0.00940368
1626	0.00662532
1638	0.00577044
1650	0.00655408
1662	0.00726648
1674	0.0081926
1686	0.0100448
1698	0.0143192
1710	0.0205884
1722	0.038897
1734	0.063831
1746	0.120752
1758	0.319654
1770	0.299778
1782	0.0805012
1794	0.0413192
1806	0.0235804
1818	0.0117546
1830	0.00918996
1842	0.00740896
1854	0.00648284
1866	0.00847756
1878	0.00933244
1890	0.0085488
1902	0.00455936
1914	0.00413192
1926	0.00448812
1938	0.00562796
1950	0.00669656
1962	0.00512928
1974	0.00263588
1986	0.00156728
1998	0.0021372
2010	0.00206596
2022	0.0024934
2034	0.00121108
2046	0.0021372
2058	0.0021372
2070	0.00199472
2082	0.00299208
2094	0.00341952
2106	0.00199472
2118	0.00163852
2130	0.0010686
2142	0.0010686
2154	0.00092612
2166	0.00220844
2178	0.00206596
2190	0.00242216
2202	0.00042744
2214	0.00128232
2226	0.0014248
2238	0.00199472
2250	0.00099736
2262	0.00156728
2274	0.00128232
2286	0.0010686
2298	0.00149604
2310	0.00292084
2322	0.00192348
2334	0.0014248
2346	0.00242216
2358	0.00099736
2370	0.00042744
2382	0.00099736
2394	0.00149604
2406	0.00049868
2418	0.00135356
2430	0.0014248
2442	0.0014248
2454	0.0024934
2466	0.00242216
2478	0.0021372
2490	0.00113984
2502	0.00135356
2514	0.00049868
2526	0.00085488
2538	0.00099736
2550	0.00099736
2562	0.00092612
2574	0.0014248
2586	0.001781
2598	0.00149604
2610	0.0014248
2622	0.00099736
2634	0.00085488
2646	0.00121108
2658	0.00056992
2670	0.0014248
2682	0.00149604
2694	0.00192348
2706	0.00192348
2718	0.00199472
2730	0.0014248
2742	0.00092612
2754	0.00206596
2766	0.00135356
2778	0.00192348
2790	0.00199472
2802	0.0028496
2814	0.00349076
2826	0.003562
2838	0.00299208
2850	0.00398944
2862	0.00555672
2874	0.0085488
2886	0.010686
2898	0.0101873
2910	0.0104723
2922	0.0111847
2934	0.021372
2946	0.0344089
2958	0.0262876
2970	0.0200897
2982	0.0479445
2994	0.0829234
3006	0.0242928
3018	0.0168126
3030	0.0311319
3042	0.0514353
3054	0.0365461
3066	0.0389683
3078	0.0512216
3090	0.030277
3102	0.0220132
3114	0.013963
3126	0.00691028
3138	0.0039182
3150	0.00256464
3162	0.00242216
3174	0.0028496
3186	0.00242216
3198	0.00227968
3210	0.00199472
3222	0.00199472
3234	0.0024934
3246	0.001781
3258	0.00149604
3270	0.00149604
3282	0.00092612
3294	0.0010686
3306	0.00135356
3318	0.00149604
3330	0.0014248
3342	0.00092612
3354	0.00056992
3366	0.00092612
3378	0.00099736
3390	0.00056992
3402	0.0007124
3414	0.00149604
3426	0.0014248
3438	0.00192348
3450	0.0014248
3462	0.00163852
3474	0.00149604
3486	0.00292084
3498	0.00349076
3510	0.00384696
3522	0.00270712
3534	0.00156728
3546	0.00099736
3558	0.00135356
3570	0.00306332
3582	0.00185224
3594	0.00092612
3606	0.00092612
3618	0.00235092
3630	0.00220844
3642	0.00149604
3654	0.00242216
3666	0.00135356
3678	0.00185224
3690	0.00192348
3702	0.00092612
3714	0.00256464
3726	0.00149604
3738	0.00170976
3750	0.0014248
3762	0.00092612
3774	0.00092612
3786	0
3798	0.00021372
3810	7.124e-05
3822	0.00042744
3834	7.124e-05
3846	0.00028496
3858	7.124e-05
3870	7.124e-05
3882	7.124e-05
3894	7.124e-05
3906	0.0010686
3918	7.124e-05
3930	7.124e-05
3942	7.124e-05
3954	7.124e-05
3966	7.124e-05
