Infrared Spectrum: N-(2-Hydroxyethyl)-N-methylaniline
Formula: C 9 H 13 N O
CAS: 93-90-3
Origin: Sadtler Research Labs Under US-EPA Contract
1/CM	ABSORBANCE
450	0.0354001
462	0.0240574
474	0.0245148
486	0.0268931
498	0.0392419
510	0.0531458
522	0.0601892
534	0.0436326
546	0.032107
558	0.0219535
570	0.0214962
582	0.0175628
594	0.00878141
606	0.00411628
618	0.0010062
630	0.00155504
642	0.00283566
654	0.0125318
666	0.032107
678	0.104828
690	0.237372
702	0.162822
714	0.0740017
726	0.0722637
738	0.166115
750	0.330766
762	0.17572
774	0.0472001
786	0.0173799
798	0.006769
810	0.00530543
822	0.00640311
834	0.0122574
846	0.032107
858	0.0624761
870	0.0888203
882	0.0826916
894	0.0582683
906	0.0450047
918	0.0401566
930	0.0424435
942	0.0604637
954	0.0962296
966	0.107389
978	0.107481
990	0.172518
1002	0.188068
1014	0.145808
1026	0.290152
1038	0.421782
1050	0.374216
1062	0.35089
1074	0.286493
1086	0.157517
1098	0.111963
1110	0.139679
1122	0.213864
1134	0.199503
1146	0.142149
1158	0.144527
1170	0.177641
1182	0.251734
1194	0.299848
1206	0.259143
1218	0.229872
1230	0.228774
1242	0.238653
1254	0.188343
1266	0.153766
1278	0.149375
1290	0.148918
1302	0.154132
1314	0.17078
1326	0.208467
1338	0.298568
1350	0.401932
1362	0.406232
1374	0.278444
1386	0.174896
1398	0.132178
1410	0.0927536
1422	0.082966
1434	0.0963211
1446	0.11864
1458	0.151205
1470	0.166115
1482	0.235177
1494	0.577652
1506	0.909242
1518	0.346042
1530	0.114616
1542	0.0793071
1554	0.0771117
1566	0.103182
1578	0.184501
1590	0.443553
1602	0.756848
1614	0.381351
1626	0.106109
1638	0.0471086
1650	0.0318326
1662	0.0246062
1674	0.0210388
1686	0.0188434
1698	0.0211303
1710	0.0251551
1722	0.0229597
1734	0.0184775
1746	0.0221365
1758	0.0215876
1770	0.015276
1782	0.010245
1794	0.00859846
1806	0.00933025
1818	0.0110682
1830	0.0112512
1842	0.00978761
1854	0.00832404
1866	0.00704342
1878	0.00649458
1890	0.00905583
1902	0.0162822
1914	0.0233256
1926	0.0223194
1938	0.0166481
1950	0.00786668
1962	0.00493954
1974	0.00329303
1986	0.0023783
1998	0.00192093
2010	0.00155504
2022	0.00182946
2034	0.00283566
2046	0.00375039
2058	0.00493954
2070	0.00603722
2082	0.00521396
2094	0.00466512
2106	0.00420776
2118	0.00311008
2130	0.00164651
2142	0.000274419
2154	0
2166	0.000365892
2178	0.000731784
2190	0.00091473
2202	0.0010062
2214	0.00109768
2226	0.00246977
2238	0.00201241
2250	0.00146357
2262	0.00109768
2274	0.000823257
2286	0.000457365
2298	0.000457365
2310	0.00210388
2322	0.0043907
2334	0.00493954
2346	0.00466512
2358	0.0033845
2370	0.00375039
2382	0.00356745
2394	0.00329303
2406	0.00320156
2418	0.00365892
2430	0.00484807
2442	0.00557985
2454	0.00640311
2466	0.00585427
2478	0.00493954
2490	0.0047566
2502	0.0047566
2514	0.00548838
2526	0.00640311
2538	0.00804962
2550	0.00905583
2562	0.0106109
2574	0.0114341
2586	0.0117085
2598	0.011983
2610	0.0108853
2622	0.0091473
2634	0.00987908
2646	0.0105194
2658	0.0126233
2670	0.0150016
2682	0.0171969
2694	0.0201241
2706	0.021862
2718	0.0236
2730	0.0256124
2742	0.0283566
2754	0.0348512
2766	0.0477489
2778	0.0706172
2790	0.106109
2802	0.157517
2814	0.207735
2826	0.221456
2838	0.212492
2850	0.217065
2862	0.250636
2874	0.324455
2886	0.372112
2898	0.336346
2910	0.298842
2922	0.306983
2934	0.343756
2946	0.372478
2958	0.369825
2970	0.298842
2982	0.219352
2994	0.168493
3006	0.113335
3018	0.0984249
3030	0.140503
3042	0.17883
3054	0.15651
3066	0.18816
3078	0.200234
3090	0.127513
3102	0.117817
3114	0.0679644
3126	0.0291799
3138	0.0122574
3150	0.00686047
3162	0.0043907
3174	0.00274419
3186	0.0023783
3198	0.00256124
3210	0.00192093
3222	0.0010062
3234	0.00091473
3246	0.00118915
3258	0.000548838
3270	0.000457365
3282	0.0010062
3294	0.000731784
3306	0.000640311
3318	0.000823257
3330	0.00128062
3342	0.00128062
3354	0.00146357
3366	0.00173799
3378	0.0023783
3390	0.00164651
3402	0.00201241
3414	0.00311008
3426	0.00420776
3438	0.00503101
3450	0.00548838
3462	0.006769
3474	0.00686047
3486	0.00612869
3498	0.00503101
3510	0.00457365
3522	0.0057628
3534	0.0077752
3546	0.0115256
3558	0.016831
3570	0.0236
3582	0.0292714
3594	0.0311008
3606	0.0311923
3618	0.0321985
3630	0.0327473
3642	0.0316497
3654	0.0422605
3666	0.0640311
3678	0.0559815
3690	0.0290884
3702	0.0131721
3714	0.00795815
3726	0.00585427
3738	0.00420776
3750	0.00265272
3762	0.00246977
3774	0.00210388
3786	0.00128062
3798	0.00192093
3810	0.0023783
3822	0.00155504
3834	0.0013721
3846	0.00173799
3858	0.0013721
3870	0.00256124
3882	0.00256124
3894	0.00091473
3906	0.00201241
3918	0.00265272
3930	0.0023783
3942	0.00182946
3954	0.0010062
3966	0.00320156
