Infrared Spectrum: Pyrrolidine, 1-nitroso-
Formula: C 4 H 8 N 2 O
CAS: 930-55-2
Origin: Sadtler Research Labs Under US-EPA Contract
1/CM	ABSORBANCE
450	0.00665046
462	0.00481283
474	0.00507535
486	0.00428779
498	0.00315022
510	0.00708799
522	0.00411278
534	0.00341273
546	0.00533787
558	0.00507535
570	0.00761302
582	0.00568789
594	0.0029752
606	0.00227516
618	0.0028877
630	0.00175012
642	0.00087506
654	8.7506e-05
666	0.00087506
678	0.0014001
690	0.00262518
702	0.00542537
714	0.0188138
726	0.029052
738	0.0276519
750	0.0210889
762	0.0177637
774	0.0146135
786	0.0173262
798	0.0583665
810	0.07298
822	0.0502284
834	0.0140885
846	0.0154886
858	0.0236266
870	0.0243267
882	0.014526
894	0.0277394
906	0.0276519
918	0.0252892
930	0.0210889
942	0.0173262
954	0.028527
966	0.0393777
978	0.0422654
990	0.0348274
1002	0.0448031
1014	0.0777053
1026	0.0780554
1038	0.0469032
1050	0.0357024
1062	0.051016
1074	0.0847058
1086	0.131259
1098	0.179037
1110	0.159611
1122	0.120233
1134	0.185688
1146	0.271881
1158	0.240554
1170	0.133709
1182	0.126621
1194	0.219553
1206	0.355624
1218	0.353349
1230	0.242742
1242	0.327272
1254	0.610967
1266	0.87506
1278	0.661983
1290	0.265581
1302	0.1849
1314	0.295945
1326	0.342498
1338	0.219553
1350	0.0634418
1362	0.0414778
1374	0.0335148
1386	0.0335148
1398	0.0352649
1410	0.0411278
1422	0.0585415
1434	0.0983567
1446	0.420816
1458	0.739338
1470	0.708624
1482	0.297345
1494	0.119008
1506	0.0597666
1518	0.0328147
1530	0.0269518
1542	0.0208264
1554	0.0101507
1566	0.00560038
1578	0.00945065
1590	0.00910062
1602	0.0103257
1614	0.00901312
1626	0.00621293
1638	0.0103257
1650	0.0105882
1662	0.0125134
1674	0.0147885
1686	0.0176762
1698	0.0116383
1710	0.00787554
1722	0.0073505
1734	0.0087506
1746	0.00656295
1758	0.00805055
1770	0.00761302
1782	0.00350024
1794	0.00245017
1806	0.0014001
1818	0.00210014
1830	0.00192513
1842	0.00105007
1854	0.000525036
1866	0.000350024
1878	0.000350024
1890	0.00087506
1902	0.000787554
1914	0.00043753
1926	0.000700048
1938	0.000612542
1950	0.000700048
1962	0.000787554
1974	0.000525036
1986	0.000612542
1998	0.000612542
2010	0.00087506
2022	0.000787554
2034	0.00105007
2046	0.00157511
2058	0.00227516
2070	0.00201264
2082	0.000962566
2094	0.000175012
2106	0.00043753
2118	0.000787554
2130	0.00087506
2142	0.000612542
2154	0.000350024
2166	0.000612542
2178	0.000962566
2190	0.0014001
2202	0.00131259
2214	0.000350024
2226	0
2238	8.7506e-05
2250	0.000787554
2262	0.0014001
2274	0.00113758
2286	0.00122508
2298	0.00166261
2310	0.0014876
2322	0.00183763
2334	0.00271269
2346	0.00332523
2358	0.00236266
2370	0.00262518
2382	0.00271269
2394	0.00236266
2406	0.00262518
2418	0.00280019
2430	0.00245017
2442	0.00218765
2454	0.00218765
2466	0.00253767
2478	0.00253767
2490	0.00192513
2502	0.0014876
2514	0.00157511
2526	0.00183763
2538	0.00183763
2550	0.00183763
2562	0.00201264
2574	0.00245017
2586	0.00306271
2598	0.00341273
2610	0.00332523
2622	0.00306271
2634	0.00253767
2646	0.0029752
2658	0.00315022
2670	0.00332523
2682	0.00358775
2694	0.00367525
2706	0.00507535
2718	0.00778803
2730	0.00945065
2742	0.00866309
2754	0.00787554
2766	0.0102382
2778	0.0126884
2790	0.0127759
2802	0.0112883
2814	0.00997568
2826	0.0100632
2838	0.0126884
2850	0.0164511
2862	0.0336023
2874	0.105182
2886	0.249655
2898	0.283432
2910	0.192163
2922	0.115508
2934	0.123208
2946	0.168887
2958	0.231541
2970	0.356849
2982	0.468157
2994	0.380389
3006	0.145785
3018	0.0428779
3030	0.0192513
3042	0.0133884
3054	0.00883811
3066	0.00621293
3078	0.00481283
3090	0.00402528
3102	0.00376276
3114	0.00350024
3126	0.00367525
3138	0.00341273
3150	0.00332523
3162	0.00306271
3174	0.00315022
3186	0.00227516
3198	0.00218765
3210	0.00192513
3222	0.00157511
3234	0.00183763
3246	0.00157511
3258	0.00122508
3270	0.0014001
3282	0.00113758
3294	0.0014876
3306	0.00157511
3318	0.00175012
3330	0.00122508
3342	0.00183763
3354	0.00166261
3366	0.0014876
3378	0.0014876
3390	0.00131259
3402	0.00157511
3414	0.00087506
3426	0.00105007
3438	0.00131259
3450	0.00131259
3462	0.0014001
3474	0.00210014
3486	0.0014876
3498	0.00113758
3510	0.0014001
3522	0.00113758
3534	0.0014876
3546	0.00253767
3558	0.00122508
3570	0.00210014
3582	0.00157511
3594	0.00087506
3606	0.000612542
3618	0.00113758
3630	0.00411278
3642	0.0014876
3654	0.000350024
3666	0.0014876
3678	0.00367525
3690	0.00210014
3702	0.00236266
3714	0.00245017
3726	0.00175012
3738	0.00402528
3750	0.00253767
3762	0.00253767
3774	0.00262518
3786	0.00323772
3798	0.00210014
3810	0.00341273
3822	0.00542537
3834	0.00358775
3846	0.00420029
3858	0.00376276
3870	0.00420029
3882	0.00280019
3894	0.00420029
3906	0.00306271
3918	0.00411278
3930	0.00376276
3942	0.00245017
3954	0.00385026
3966	0.00122508
