Infrared Spectrum: 2-Cyclohexen-1-one
Formula: C 6 H 8 O
CAS: 930-68-7
Origin: Sadtler Research Labs Under US-EPA Contract
1/CM	ABSORBANCE
450	0
462	0.0413661
474	0.0633954
486	0.0641297
498	0.0478525
510	0.0253337
522	0.0283933
534	0.0254561
546	0.0222741
558	0.0354916
570	0.0343902
582	0.0455272
594	0.0375722
606	0.0249665
618	0.0222741
630	0.0241098
642	0.0231308
654	0.0210502
666	0.0285157
678	0.0272919
690	0.0296172
702	0.0503002
714	0.0793055
726	0.141844
738	0.102436
750	0.0997438
762	0.083589
774	0.0565419
786	0.0315753
798	0.0220293
810	0.0225188
822	0.0227636
834	0.0248442
846	0.0384289
858	0.0529927
870	0.0570314
882	0.109045
894	0.0653536
906	0.0323096
918	0.0381841
930	0.0729415
942	0.0692699
954	0.0480973
966	0.034635
978	0.0405094
990	0.0331663
1002	0.0214174
1014	0.0195816
1026	0.0217845
1038	0.0232532
1050	0.0223965
1062	0.0245994
1074	0.0211726
1086	0.0238651
1098	0.0528703
1110	0.114552
1122	0.127403
1134	0.102191
1146	0.0558076
1158	0.0351245
1170	0.0307186
1182	0.0348797
1194	0.0614373
1206	0.0988871
1218	0.129116
1230	0.124221
1242	0.149799
1254	0.125812
1266	0.0823651
1278	0.0391632
1290	0.0291276
1302	0.0363483
1314	0.0649864
1326	0.0739205
1338	0.0817532
1350	0.0640074
1362	0.0631507
1374	0.101947
1386	0.112594
1398	0.119448
1410	0.0674341
1422	0.0871381
1434	0.102926
1446	0.0944812
1458	0.0758787
1470	0.0498107
1482	0.030841
1494	0.0266799
1506	0.0270471
1518	0.026068
1530	0.0245994
1542	0.0259456
1554	0.0232532
1566	0.0236203
1578	0.0252113
1590	0.0239875
1602	0.0325544
1614	0.0450377
1626	0.0483421
1638	0.0538494
1650	0.0609477
1662	0.0952155
1674	0.13291
1686	0.281975
1698	0.906261
1710	1.22385
1722	0.942242
1734	0.14882
1746	0.0764906
1758	0.0467511
1770	0.0336559
1782	0.0343902
1794	0.034023
1806	0.0353693
1818	0.0335335
1830	0.0272919
1842	0.0249665
1854	0.0265575
1866	0.0241098
1878	0.0220293
1890	0.0203159
1902	0.0188473
1914	0.0186025
1926	0.0190921
1938	0.0198264
1950	0.0199488
1962	0.0223965
1974	0.0209278
1986	0.0190921
1998	0.0211726
2010	0.0184801
2022	0.0190921
2034	0.0203159
2046	0.0186025
2058	0.0189697
2070	0.0205607
2082	0.0201935
2094	0.0200711
2106	0.0210502
2118	0.0208054
2130	0.0206831
2142	0.022886
2154	0.0210502
2166	0.0200711
2178	0.0219069
2190	0.0190921
2202	0.0193368
2214	0.0205607
2226	0.0187249
2238	0.019704
2250	0.0198264
2262	0.0194592
2274	0.0206831
2286	0.0219069
2298	0.021295
2310	0.0205607
2322	0.0227636
2334	0.0186025
2346	0.0170115
2358	0.0237427
2370	0.0154205
2382	0.0176234
2394	0.0198264
2406	0.0179906
2418	0.0183577
2430	0.0183577
2442	0.0170115
2454	0.0173787
2466	0.0188473
2478	0.0175011
2490	0.0167667
2502	0.0182354
2514	0.0154205
2526	0.01591
2538	0.0186025
2550	0.0163996
2562	0.0190921
2574	0.0193368
2586	0.0167667
2598	0.0184801
2610	0.0184801
2622	0.0170115
2634	0.0186025
2646	0.0203159
2658	0.0215398
2670	0.0236203
2682	0.0247218
2694	0.0199488
2706	0.0200711
2718	0.0195816
2730	0.0183577
2742	0.0208054
2754	0.0221517
2766	0.0216621
2778	0.0233755
2790	0.0237427
2802	0.0257009
2814	0.0280262
2826	0.0456496
2838	0.0826099
2850	0.0935021
2862	0.0922783
2874	0.113084
2886	0.147229
2898	0.145638
2910	0.125077
2922	0.179049
2934	0.272184
2946	0.436792
2958	0.332153
2970	0.23657
2982	0.124833
2994	0.0480973
3006	0.0302291
3018	0.0417333
3030	0.0964394
3042	0.111003
3054	0.108066
3066	0.060703
3078	0.0392856
3090	0.0232532
3102	0.0258232
3114	0.0222741
3126	0.0194592
3138	0.0232532
3150	0.0195816
3162	0.0208054
3174	0.0219069
3186	0.0231308
3198	0.0215398
3210	0.0230084
3222	0.0259456
3234	0.0231308
3246	0.0259456
3258	0.0230084
3270	0.0187249
3282	0.0233755
3294	0.0242322
3306	0.0204383
3318	0.0270471
3330	0.0245994
3342	0.0236203
3354	0.0269247
3366	0.0287605
3378	0.0321873
3390	0.0398975
3402	0.0438138
3414	0.0335335
3426	0.0285157
3438	0.0255785
3450	0.0209278
3462	0.0290052
3474	0.0225188
3486	0.0217845
3498	0.0265575
3510	0.0227636
3522	0.0231308
3534	0.0243546
3546	0.0236203
3558	0.0216621
3570	0.0250889
3582	0.0266799
3594	0.0193368
3606	0.0247218
3618	0.0247218
3630	0.0217845
3642	0.0274142
3654	0.0227636
3666	0.021295
3678	0.0282709
3690	0.0237427
3702	0.0226412
3714	0.0250889
3726	0.0255785
3738	0.0259456
3750	0.026068
3762	0.0237427
3774	0.019704
3786	0.0282709
3798	0.022886
3810	0.0226412
3822	0.0296172
3834	0.0182354
3846	0.0209278
3858	0.0274142
3870	0.018113
3882	0.022886
3894	0.0231308
3906	0.0239875
3918	0.0219069
3930	0.0291276
3942	0.0201935
3954	0.0211726
3966	0.0279038
