Infrared Spectrum: Cyclooctene
Formula: C 8 H 14
CAS: 931-88-4
Origin: Sadtler Research Labs Under US-EPA Contract
1/CM	ABSORBANCE
450	0
462	0.00959825
474	0.00794694
486	0.0058828
498	0.00701808
510	0.00650204
522	0.00650204
534	0.00681166
546	0.00330262
558	0.00629563
570	0.011456
582	0.0131073
594	0.00619242
606	0.00474752
618	0.00423149
630	0.00474752
642	0.00660525
654	0.0101143
666	0.00774052
678	0.0139329
690	0.0400443
702	0.056351
714	0.0370513
726	0.0172356
738	0.0484041
750	0.114147
762	0.0973242
774	0.0249761
786	0.0112496
798	0.0102175
810	0.0136233
822	0.0126945
834	0.0088758
846	0.00639883
858	0.00897901
870	0.0126945
882	0.0201254
894	0.0298268
906	0.0143458
918	0.00546997
930	0.00536676
942	0.00536676
954	0.0073277
966	0.0120752
978	0.0155843
990	0.0123848
1002	0.00763732
1014	0.00825656
1026	0.00970146
1038	0.00784373
1050	0.0073277
1062	0.00856618
1074	0.0102175
1086	0.0088758
1098	0.00815335
1110	0.0088758
1122	0.0105271
1134	0.00897901
1146	0.0073277
1158	0.00681166
1170	0.00784373
1182	0.0087726
1194	0.0074309
1206	0.00753411
1218	0.00939184
1230	0.0108367
1242	0.0159971
1254	0.0181644
1266	0.017442
1278	0.0165131
1290	0.0105271
1302	0.00660525
1314	0.00639883
1326	0.00753411
1338	0.00980467
1350	0.0170292
1362	0.0190933
1374	0.012488
1386	0.00701808
1398	0.00815335
1410	0.00928863
1422	0.0131073
1434	0.0332327
1446	0.0795726
1458	0.111257
1470	0.103929
1482	0.0499522
1494	0.0221895
1506	0.00918542
1518	0.00639883
1530	0.00619242
1542	0.00433469
1554	0.00505714
1566	0.00526356
1578	0.00619242
1590	0.00629563
1602	0.00753411
1614	0.00753411
1626	0.00866939
1638	0.0136233
1650	0.0198157
1662	0.0187837
1674	0.0109399
1686	0.00650204
1698	0.00701808
1710	0.0112496
1722	0.0117656
1734	0.00835977
1746	0.00629563
1758	0.00536676
1770	0.00485073
1782	0.00464432
1794	0.0044379
1806	0.00464432
1818	0.00454111
1830	0.00454111
1842	0.00433469
1854	0.00485073
1866	0.00495394
1878	0.0044379
1890	0.00433469
1902	0.00433469
1914	0.00474752
1926	0.00505714
1938	0.00526356
1950	0.00526356
1962	0.00495394
1974	0.00433469
1986	0.00423149
1998	0.00423149
2010	0.00423149
2022	0.00423149
2034	0.00454111
2046	0.00433469
2058	0.00423149
2070	0.00423149
2082	0.00474752
2094	0.00474752
2106	0.00505714
2118	0.00474752
2130	0.00495394
2142	0.00526356
2154	0.00505714
2166	0.00485073
2178	0.00474752
2190	0.00464432
2202	0.00495394
2214	0.00505714
2226	0.00516035
2238	0.00526356
2250	0.00505714
2262	0.00474752
2274	0.00485073
2286	0.00474752
2298	0.00423149
2310	0.00340583
2322	0.00319942
2334	0.00319942
2346	0.00319942
2358	0.00319942
2370	0.00319942
2382	0.00423149
2394	0.00516035
2406	0.00516035
2418	0.00516035
2430	0.00536676
2442	0.00526356
2454	0.00536676
2466	0.00536676
2478	0.00536676
2490	0.00536676
2502	0.00485073
2514	0.00505714
2526	0.00546997
2538	0.00546997
2550	0.00577959
2562	0.00629563
2574	0.00660525
2586	0.00619242
2598	0.00660525
2610	0.00701808
2622	0.00794694
2634	0.00866939
2646	0.00970146
2658	0.0116624
2670	0.0152746
2682	0.0214671
2694	0.0219831
2706	0.0158939
2718	0.0116624
2730	0.00980467
2742	0.0100111
2754	0.0112496
2766	0.0118688
2778	0.0130041
2790	0.0153778
2802	0.0175452
2814	0.0184741
2826	0.023428
2838	0.0452047
2850	0.160177
2862	0.310859
2874	0.278969
2886	0.165441
2898	0.202286
2910	0.387852
2922	0.788398
2934	1.02526
2946	0.759087
2958	0.26968
2970	0.115179
2982	0.0670846
2994	0.0470624
3006	0.0741026
3018	0.144799
3030	0.143664
3042	0.0501586
3054	0.0185773
3066	0.0171324
3078	0.0148618
3090	0.0116624
3102	0.00949504
3114	0.0087726
3126	0.0073277
3138	0.00608921
3150	0.00691487
3162	0.00722449
3174	0.00629563
3186	0.00670846
3198	0.00639883
3210	0.00681166
3222	0.00629563
3234	0.00495394
3246	0.00546997
3258	0.00598601
3270	0.00608921
3282	0.00619242
3294	0.0058828
3306	0.00546997
3318	0.00526356
3330	0.00546997
3342	0.00536676
3354	0.00577959
3366	0.00536676
3378	0.00557318
3390	0.00567638
3402	0.00495394
3414	0.00505714
3426	0.00485073
3438	0.00412828
3450	0.00464432
3462	0.00464432
3474	0.00474752
3486	0.00505714
3498	0.00464432
3510	0.00474752
3522	0.00474752
3534	0.00423149
3546	0.00412828
3558	0.0044379
3570	0.00412828
3582	0.00412828
3594	0.00474752
3606	0.00423149
3618	0.0044379
3630	0.00340583
3642	0.00516035
3654	0.00454111
3666	0.00433469
3678	0.00433469
3690	0.00485073
3702	0.00423149
3714	0.00371545
3726	0.00516035
3738	0.00495394
3750	0.00505714
3762	0.00485073
3774	0.00454111
3786	0.00526356
3798	0.0044379
3810	0.00526356
3822	0.00392187
3834	0.00464432
3846	0.00454111
3858	0.00319942
3870	0.00485073
3882	0.00433469
3894	0.00485073
3906	0.0044379
3918	0.00392187
3930	0.00392187
3942	0.00516035
3954	0.00485073
3966	0.00412828
