Infrared Spectrum: Cyclohexylacetylene
Formula: C 8 H 12
CAS: 931-48-6
Origin: Sadtler Research Labs Under US-EPA Contract
1/CM	ABSORBANCE
450	0.0695191
462	0.02401
474	0.0211853
486	0.00510016
498	0.0346026
510	0.0255793
522	0.0205576
534	0.0251085
546	0.0178113
558	0.0231469
570	0.0134958
582	0.0069833
594	0.0183606
606	0.0190668
618	0.0896059
630	0.435789
642	0.201966
654	0.0459014
666	0.0249516
678	0.0186744
690	0.0147512
702	0.0129466
714	0.0141235
726	0.0125542
738	0.0136527
750	0.016242
762	0.0160067
774	0.0186744
786	0.0154574
798	0.0158497
810	0.0131035
822	0.0145943
834	0.0193806
846	0.0222053
858	0.0200083
870	0.0204791
882	0.0267562
894	0.0259716
906	0.0187529
918	0.0156143
930	0.0167913
942	0.0171052
954	0.0171836
966	0.0182036
978	0.0139666
990	0.0134173
1002	0.0180467
1014	0.0203222
1026	0.0203222
1038	0.0210284
1050	0.0236961
1062	0.0232253
1074	0.0209499
1086	0.0167128
1098	0.0148297
1110	0.0144374
1122	0.0159282
1134	0.0177329
1146	0.0176544
1158	0.0158497
1170	0.0149082
1182	0.0146728
1194	0.0143589
1206	0.0145158
1218	0.0149082
1230	0.0265208
1242	0.0909398
1254	0.106319
1266	0.0377412
1278	0.0163205
1290	0.0165559
1302	0.0183606
1314	0.0214991
1326	0.0212637
1338	0.0176544
1350	0.0223622
1362	0.0240884
1374	0.0193021
1386	0.0127896
1398	0.0127896
1410	0.0145943
1422	0.0139666
1434	0.0246377
1446	0.0648897
1458	0.0905475
1470	0.0423706
1482	0.0188314
1494	0.0150651
1506	0.0134173
1518	0.0134958
1530	0.0118481
1542	0.0133389
1554	0.0134173
1566	0.0131035
1578	0.0143589
1590	0.0134958
1602	0.0134173
1614	0.0144374
1626	0.0127896
1638	0.0151436
1650	0.0138097
1662	0.0143589
1674	0.0158497
1686	0.0176544
1698	0.0216561
1710	0.019616
1722	0.0179683
1734	0.0178113
1746	0.0174975
1758	0.0165559
1770	0.0156143
1782	0.0147512
1794	0.0149866
1806	0.0146728
1818	0.0134173
1830	0.0141235
1842	0.014202
1854	0.0146728
1866	0.0145943
1878	0.015222
1890	0.0149866
1902	0.0142804
1914	0.0145158
1926	0.0146728
1938	0.0149866
1950	0.0149082
1962	0.0149082
1974	0.0145943
1986	0.0153005
1998	0.0145943
2010	0.0122404
2022	0.00988646
2034	0.00823872
2046	0.00651251
2058	0.00659098
2070	0.00745408
2082	0.0135743
2094	0.0222053
2106	0.0303656
2118	0.0374273
2130	0.0316995
2142	0.0178898
2154	0.0138097
2166	0.0115342
2178	0.0145943
2190	0.0161636
2202	0.016399
2214	0.0163205
2226	0.016242
2238	0.0169482
2250	0.016242
2262	0.0155359
2274	0.0158497
2286	0.0156928
2298	0.016242
2310	0.016399
2322	0.014202
2334	0.013025
2346	0.0143589
2358	0.0122404
2370	0.0114557
2382	0.0147512
2394	0.0154574
2406	0.0145943
2418	0.0144374
2430	0.0145943
2442	0.0137312
2454	0.0127896
2466	0.013025
2478	0.0133389
2490	0.0136527
2502	0.013182
2514	0.0127896
2526	0.0120835
2538	0.0118481
2550	0.00957261
2562	0.00659098
2574	0.0078464
2586	0.0105926
2598	0.0119265
2610	0.0127112
2622	0.0127896
2634	0.00863104
2646	0.00902336
2658	0.0200868
2670	0.0259716
2682	0.0188314
2694	0.0167128
2706	0.0144374
2718	0.0125542
2730	0.0118481
2742	0.0116127
2754	0.0116911
2766	0.0122404
2778	0.013025
2790	0.0151436
2802	0.0166344
2814	0.0178898
2826	0.0173405
2838	0.0210284
2850	0.0760316
2862	0.20228
2874	0.19718
2886	0.0969815
2898	0.0767378
2910	0.124052
2922	0.22629
2934	0.574592
2946	0.722653
2958	0.35144
2970	0.0416644
2982	0
2994	0.00666944
3006	0.00886643
3018	0.00753254
3030	0.00737562
3042	0.010828
3054	0.0119265
3066	0.012005
3078	0.0116911
3090	0.0127896
3102	0.0135743
3114	0.0127896
3126	0.0127896
3138	0.0131035
3150	0.0159282
3162	0.0208714
3174	0.0220484
3186	0.0199299
3198	0.0180467
3210	0.0193806
3222	0.0235392
3234	0.0298948
3246	0.0309933
3258	0.0270701
3270	0.0197729
3282	0.0223622
3294	0.0301302
3306	0.055474
3318	0.129701
3330	0.160067
3342	0.0743839
3354	0.0262854
3366	0.020636
3378	0.0149082
3390	0.013182
3402	0.0156143
3414	0.0143589
3426	0.0165559
3438	0.0159282
3450	0.0167913
3462	0.0174975
3474	0.0182036
3486	0.0176544
3498	0.0167128
3510	0.0187529
3522	0.0156143
3534	0.0156143
3546	0.0185175
3558	0.0178113
3570	0.0177329
3582	0.0179683
3594	0.0199299
3606	0.0214991
3618	0.0235392
3630	0.0320133
3642	0.0280901
3654	0.022833
3666	0.0172621
3678	0.0222053
3690	0.0178898
3702	0.0165559
3714	0.0185175
3726	0.0167128
3738	0.0149082
3750	0.0167128
3762	0.017419
3774	0.0171836
3786	0.0167913
3798	0.0179683
3810	0.0180467
3822	0.0171836
3834	0.0164774
3846	0.0185175
3858	0.0156143
3870	0.0171836
3882	0.0175759
3894	0.0164774
3906	0.0176544
3918	0.019616
3930	0.0212637
3942	0.0200868
3954	0.0160067
3966	0.0153789
