Infrared Spectrum: 1,2-Cyclohexanediol
Formula: C 6 H 12 O 2
CAS: 931-17-9
Origin: Sadtler Research Labs Under US-EPA Contract
1/CM	ABSORBANCE
450	0.0266013
462	0.022914
474	0.0222994
486	0.0218605
498	0.0198412
510	0.0200168
522	0.00921826
534	0.0136079
546	0.00930606
558	0.00816475
570	0.0142225
582	0.028006
594	0.0386289
606	0.0179098
618	0.0108863
630	0.0115009
642	0.0143103
654	0.0331858
666	0.0221238
678	0.0147492
690	0.00667227
702	0.0050042
714	0.0075502
726	0.00509199
738	0.0104474
750	0.00614551
762	0.015276
774	0.0153638
786	0.0111497
798	0.0215971
810	0.0246698
822	0.0293229
834	0.0304642
846	0.0320444
858	0.0268647
870	0.0280938
882	0.0438965
894	0.0424918
906	0.0388923
918	0.0315177
930	0.0228262
942	0.0351172
954	0.0536415
966	0.095431
978	0.19016
990	0.249683
1002	0.149336
1014	0.0714635
1026	0.0735705
1038	0.111673
1050	0.221063
1062	0.354069
1074	0.377334
1086	0.202802
1098	0.0927972
1110	0.0863883
1122	0.0802428
1134	0.0716391
1146	0.07041
1158	0.078048
1170	0.0870029
1182	0.0791893
1194	0.0747118
1206	0.0701466
1218	0.0827888
1230	0.108073
1242	0.109214
1254	0.100786
1266	0.0923582
1278	0.079716
1290	0.0604016
1302	0.0517979
1314	0.060226
1326	0.0733949
1338	0.0840179
1350	0.078048
1362	0.0744485
1374	0.0867395
1386	0.095431
1398	0.0860371
1410	0.0589091
1422	0.0467059
1434	0.0598748
1446	0.0867395
1458	0.0999084
1470	0.0562753
1482	0.0241431
1494	0.00939385
1506	0.00965723
1518	0.00684785
1530	0.00421406
1542	0.00772578
1554	0.00342393
1566	0.00316055
1578	0.00175586
1590	0.00087793
1602	0.00193145
1614	0.000614551
1626	0.00307276
1638	0.00280938
1650	0.00307276
1662	0.00272158
1674	0.00333613
1686	0.00816475
1698	0.00790137
1710	0.00596992
1722	0.00719903
1734	0.0126422
1746	0.00948164
1758	0.00447744
1770	0.00517979
1782	0.00228262
1794	0.00324834
1806	0.00114131
1818	0.00114131
1830	0.00219483
1842	0.000965723
1854	0.00184365
1866	0.000790137
1878	0.00149248
1890	0.00193145
1902	0.000965723
1914	0.00201924
1926	0.000965723
1938	0.00166807
1950	0.00175586
1962	0.00210703
1974	0.00272158
1986	0.00114131
1998	0.00184365
2010	0.00149248
2022	0.00184365
2034	0.0024582
2046	0.00166807
2058	0.00298496
2070	0.00201924
2082	0.002546
2094	0.0024582
2106	0.00263379
2118	0.00342393
2130	0.00280938
2142	0.00342393
2154	0.00263379
2166	0.0024582
2178	0.00272158
2190	0.00228262
2202	0.00324834
2214	0.00263379
2226	0.00298496
2238	0.00263379
2250	0.00210703
2262	0.00280938
2274	0.00149248
2286	0.00307276
2298	0.00351172
2310	0.00412627
2322	0.0050042
2334	0.00316055
2346	0.00570655
2358	0.00412627
2370	0.0063211
2382	0.00482862
2394	0.00280938
2406	0.0037751
2418	0.00228262
2430	0.00298496
2442	0.00280938
2454	0.00324834
2466	0.00333613
2478	0.0024582
2490	0.00421406
2502	0.00280938
2514	0.00386289
2526	0.00395068
2538	0.00342393
2550	0.00412627
2562	0.00403848
2574	0.0050042
2586	0.00535537
2598	0.0063211
2610	0.00772578
2622	0.00772578
2634	0.00930606
2646	0.00974502
2658	0.0144858
2670	0.0167685
2682	0.0158905
2694	0.014837
2706	0.01273
2718	0.0134323
2730	0.0117643
2742	0.0135201
2754	0.0156272
2766	0.0162417
2778	0.0179976
2790	0.0189633
2802	0.0217727
2814	0.022475
2826	0.0289717
2838	0.0517101
2850	0.114131
2862	0.238797
2874	0.301042
2886	0.296038
2898	0.286995
2910	0.288488
2922	0.35047
2934	0.586106
2946	0.873101
2958	0.565738
2970	0.152321
2982	0.0266013
2994	0.0087793
3006	0.00728682
3018	0.00403848
3030	0.00482862
3042	0.00403848
3054	0.0037751
3066	0.00447744
3078	0.00316055
3090	0.00456524
3102	0.00307276
3114	0.0024582
3126	0.00447744
3138	0.0024582
3150	0.00333613
3162	0.00193145
3174	0.00263379
3186	0.0024582
3198	0.00201924
3210	0.00403848
3222	0.002546
3234	0.00465303
3246	0.0037751
3258	0.00351172
3270	0.00307276
3282	0.00219483
3294	0.00561875
3306	0.00351172
3318	0.00474082
3330	0.00526758
3342	0.00395068
3354	0.00491641
3366	0.00342393
3378	0.00421406
3390	0.00333613
3402	0.00316055
3414	0.00403848
3426	0.00324834
3438	0.00684785
3450	0.00535537
3462	0.00640889
3474	0.00860371
3486	0.00649668
3498	0.00851592
3510	0.00702344
3522	0.00974502
3534	0.00913047
3546	0.0102718
3558	0.0126422
3570	0.0156272
3582	0.0256356
3594	0.0427552
3606	0.0765555
3618	0.103596
3630	0.0998206
3642	0.0810329
3654	0.0676884
3666	0.0564509
3678	0.0361707
3690	0.0215971
3702	0.0135201
3714	0.0103596
3726	0.0105352
3738	0.00904268
3750	0.00974502
3762	0.00798916
3774	0.00553096
3786	0.0063211
3798	0.00491641
3810	0.00605772
3822	0.00649668
3834	0.00535537
3846	0.00746241
3858	0.00605772
3870	0.00772578
3882	0.0050042
3894	0.00614551
3906	0.00693565
3918	0.00368731
3930	0.0062333
3942	0.00324834
3954	0.00280938
3966	0.00280938
