Infrared Spectrum: Benzaldehyde, oxime
Formula: C 7 H 7 N O
CAS: 932-90-1
Origin: Sadtler Research Labs Under US-EPA Contract
1/CM	ABSORBANCE
450	0.00740636
462	0.0351802
474	0.0231993
486	0.0276649
498	0.0458541
510	0.0898565
522	0.0705782
534	0.0349624
546	0.0240707
558	0.0169911
570	0.0216745
582	0.0248331
594	0.0152484
606	0.0119809
618	0.0168821
630	0.070905
642	0.210319
654	0.116977
666	0.0727566
678	0.209338
690	0.37914
702	0.236677
714	0.168059
726	0.141592
738	0.172633
750	0.306601
762	0.257044
774	0.0967183
786	0.0246152
798	0.0202586
810	0.018407
822	0.0238528
834	0.0414974
846	0.036705
858	0.223062
870	0.392428
882	0.0638254
894	0.0447649
906	0.0587063
918	0.0834304
930	0.193872
942	0.784202
954	0.992561
966	0.123621
978	0.0138325
990	0.00740636
1002	0.0106739
1014	0.0205853
1026	0.0284273
1038	0.0127433
1050	0.00697069
1062	0.0238528
1074	0.0304968
1086	0.0245063
1098	0.0229815
1110	0.0136146
1122	0.00413885
1134	0.000871336
1146	0
1158	0.00152484
1170	0.0202586
1182	0.0306057
1194	0.0402993
1206	0.12776
1218	0.070905
1230	0.0225458
1242	0.108481
1254	0.510821
1266	0.536525
1278	0.0872425
1290	0.0466165
1302	0.036705
1314	0.0388834
1326	0.0410617
1338	0.0363783
1350	0.0289719
1362	0.0240707
1374	0.0179713
1386	0.0355069
1398	0.100095
1410	0.0890941
1422	0.0254866
1434	0.0261401
1446	0.0593598
1458	0.0541317
1470	0.0187337
1482	0.0350713
1494	0.0725387
1506	0.0632808
1518	0.0135057
1530	0.0057726
1542	0.00620827
1554	0.00435668
1566	0.00620827
1578	0.0142681
1590	0.0233082
1602	0.0204764
1614	0.010456
1626	0.00805986
1638	0.00969361
1650	0.00980253
1662	0.0137235
1674	0.00980253
1686	0.00784202
1698	0.0103471
1710	0.014377
1722	0.0235261
1734	0.0241796
1746	0.015793
1758	0.0190605
1770	0.0212388
1782	0.0136146
1794	0.0180802
1806	0.0285363
1818	0.0193872
1830	0.0108917
1842	0.00805986
1854	0.010456
1866	0.0187337
1878	0.0318038
1890	0.0421509
1902	0.0233082
1914	0.00882228
1926	0.0106739
1938	0.0166643
1950	0.0199318
1962	0.0218923
1974	0.0127433
1986	0.00555477
1998	0.00402993
2010	0.00413885
2022	0.00457451
2034	0.0044656
2046	0.00424776
2058	0.0044656
2070	0.00501018
2082	0.00424776
2094	0.00424776
2106	0.0044656
2118	0.00468343
2130	0.0044656
2142	0.00479235
2154	0.00468343
2166	0.00468343
2178	0.00490127
2190	0.00566368
2202	0.00631719
2214	0.00686177
2226	0.00991145
2238	0.0138325
2250	0.0107828
2262	0.00740636
2274	0.0064261
2286	0.00522802
2298	0.00424776
2310	0.00620827
2322	0.00871336
2334	0.00784202
2346	0.00762419
2358	0.00718852
2370	0.00555477
2382	0.00544585
2394	0.00566368
2406	0.00555477
2418	0.00566368
2430	0.00522802
2442	0.00533693
2454	0.00522802
2466	0.00468343
2478	0.00490127
2490	0.00620827
2502	0.00947578
2514	0.0126344
2526	0.00991145
2538	0.0064261
2550	0.00609935
2562	0.00697069
2574	0.00882228
2586	0.00805986
2598	0.00697069
2610	0.00707961
2622	0.00784202
2634	0.010456
2646	0.0142681
2658	0.0138325
2670	0.00838661
2682	0.00620827
2694	0.0064261
2706	0.00686177
2718	0.00762419
2730	0.00751527
2742	0.00707961
2754	0.00544585
2766	0.00631719
2778	0.00751527
2790	0.00925795
2802	0.011763
2814	0.0112185
2826	0.00882228
2838	0.00795094
2850	0.00805986
2862	0.00991145
2874	0.0115452
2886	0.0121987
2898	0.0124165
2910	0.0106739
2922	0.0108917
2934	0.0141592
2946	0.023635
2958	0.0542407
2970	0.0731922
2982	0.0374674
2994	0.0198229
3006	0.0222191
3018	0.0441114
3030	0.105649
3042	0.149325
3054	0.112511
3066	0.16697
3078	0.212061
3090	0.124383
3102	0.0946489
3114	0.0518445
3126	0.022328
3138	0.0095847
3150	0.00936686
3162	0.00969361
3174	0.00631719
3186	0.00522802
3198	0.0057726
3210	0.00555477
3222	0.0044656
3234	0.00479235
3246	0.0057726
3258	0.00893119
3270	0.00969361
3282	0.00762419
3294	0.0057726
3306	0.00479235
3318	0.0051191
3330	0.00479235
3342	0.00522802
3354	0.0051191
3366	0.00555477
3378	0.00457451
3390	0.00490127
3402	0.00490127
3414	0.00544585
3426	0.00653502
3438	0.00620827
3450	0.00566368
3462	0.00522802
3474	0.00599043
3486	0.00555477
3498	0.00490127
3510	0.00555477
3522	0.00522802
3534	0.0051191
3546	0.00860444
3558	0.0105649
3570	0.0176446
3582	0.0138325
3594	0.0123076
3606	0.0180802
3618	0.0661126
3630	0.25443
3642	0.857612
3654	0.626273
3666	0.0447649
3678	0.00969361
3690	0.00740636
3702	0.0116541
3714	0.0141592
3726	0.0176446
3738	0.0105649
3750	0.00163375
3762	0.00326751
3774	0.00294076
3786	0.00261401
3798	0.00501018
3810	0.00174267
3822	0.0038121
3834	0.00359426
3846	0.00206942
3858	0.00163375
3870	0.00228726
3882	0.00261401
3894	0.00304968
3906	0.00555477
3918	0.00490127
3930	0.00490127
3942	0.00402993
3954	0.00152484
3966	0.00141592
