Infrared Spectrum: Phenol, 2,3,6-trichloro-
Formula: C 6 H 3 Cl 3 O
CAS: 933-75-5
Origin: Sadtler Research Labs Under US-EPA Contract
1/CM	ABSORBANCE
450	0
462	0.0562249
474	0.0450865
486	0.0509463
498	0.102377
510	0.0803421
522	0.0782596
534	0.0683319
546	0.070608
558	0.0843131
570	0.0754508
582	0.0780175
594	0.087461
606	0.0967107
618	0.10504
630	0.124654
642	0.0716734
654	0.058162
666	0.0611646
678	0.058162
690	0.0586463
702	0.0524475
714	0.0601476
726	0.0647482
738	0.0545784
750	0.0554985
762	0.0587916
774	0.0731747
786	0.148916
798	0.330134
810	0.254053
822	0.109399
834	0.0654262
846	0.0548205
858	0.0548689
870	0.0572903
882	0.0623268
894	0.0725451
906	0.178312
918	0.30529
930	0.110271
942	0.0623268
954	0.0558375
966	0.0544331
978	0.0522538
990	0.0561765
1002	0.0551595
1014	0.0549174
1026	0.0555469
1038	0.0569029
1050	0.0526412
1062	0.0523507
1074	0.057484
1086	0.0686709
1098	0.129545
1110	0.176859
1122	0.0862018
1134	0.106881
1146	0.124847
1158	0.24277
1170	0.461422
1182	0.121554
1194	0.0860566
1206	0.100585
1218	0.207708
1230	0.267371
1242	0.138795
1254	0.0967107
1266	0.0816012
1278	0.0765162
1290	0.190564
1302	0.271875
1314	0.165624
1326	0.158166
1338	0.0593727
1350	0.0514305
1362	0.0533192
1374	0.0573388
1386	0.0599539
1398	0.123637
1410	0.325388
1422	0.253811
1434	0.182089
1446	0.351345
1458	0.372702
1470	0.277492
1482	0.082037
1494	0.0573388
1506	0.0663948
1518	0.0597602
1530	0.0550626
1542	0.0554501
1554	0.0801968
1566	0.149449
1578	0.120683
1590	0.0631501
1602	0.0488154
1614	0.0466846
1626	0.0464909
1638	0.0445053
1650	0.0426166
1662	0.045716
1674	0.0437789
1686	0.0439242
1698	0.0432946
1710	0.0462972
1722	0.0465877
1734	0.0441179
1746	0.0426651
1758	0.0437305
1770	0.0433431
1782	0.0423745
1794	0.0422292
1806	0.0413091
1818	0.0423261
1830	0.0431009
1842	0.0466362
1854	0.0517211
1866	0.0471689
1878	0.0421324
1890	0.0419386
1902	0.0421324
1914	0.0410669
1926	0.0413091
1938	0.0417449
1950	0.0414544
1962	0.0408732
1974	0.0402921
1986	0.0402437
1998	0.0401952
2010	0.0402921
2022	0.0410185
2034	0.0406311
2046	0.0402437
2058	0.0402437
2070	0.0404374
2082	0.0394204
2094	0.039033
2106	0.0389361
2118	0.0392267
2130	0.0400984
2142	0.0398562
2154	0.0401952
2166	0.0393235
2178	0.0400984
2190	0.0389845
2202	0.0384518
2214	0.038694
2226	0.0391783
2238	0.0391783
2250	0.0395172
2262	0.0402437
2274	0.039711
2286	0.0392267
2298	0.0394688
2310	0.0391783
2322	0.0400984
2334	0.0404858
2346	0.0409701
2358	0.0387908
2370	0.0423745
2382	0.0431009
2394	0.0416481
2406	0.0407764
2418	0.0399531
2430	0.0405342
2442	0.0404858
2454	0.0414059
2466	0.0424229
2478	0.0423745
2490	0.0418418
2502	0.0407764
2514	0.0405827
2526	0.0417449
2538	0.0406311
2550	0.0405827
2562	0.0406795
2574	0.0414544
2586	0.0399531
2598	0.0406795
2610	0.0406311
2622	0.0408732
2634	0.0415512
2646	0.0410669
2658	0.0409701
2670	0.0407279
2682	0.0407764
2694	0.0411154
2706	0.0419386
2718	0.0422776
2730	0.0428104
2742	0.0424714
2754	0.0407279
2766	0.0410669
2778	0.0417934
2790	0.0414059
2802	0.0412607
2814	0.0408248
2826	0.0410669
2838	0.0407764
2850	0.0392267
2862	0.0409217
2874	0.0402437
2886	0.0400015
2898	0.04005
2910	0.0390814
2922	0.0382097
2934	0.039033
2946	0.0406795
2958	0.0403405
2970	0.0407279
2982	0.0415028
2994	0.0413575
3006	0.0415997
3018	0.0415512
3030	0.0414059
3042	0.0414059
3054	0.0420355
3066	0.0418418
3078	0.0427619
3090	0.0425198
3102	0.0419871
3114	0.0414059
3126	0.0412122
3138	0.0428588
3150	0.0431493
3162	0.0422776
3174	0.0426166
3186	0.0420839
3198	0.0421324
3210	0.0412607
3222	0.0420355
3234	0.0425682
3246	0.0424714
3258	0.0434399
3270	0.0448928
3282	0.0427135
3294	0.0429072
3306	0.0434883
3318	0.0427135
3330	0.0431978
3342	0.0426166
3354	0.0420355
3366	0.0432462
3378	0.0441663
3390	0.0422776
3402	0.0411638
3414	0.0426166
3426	0.0432462
3438	0.0422292
3450	0.0424229
3462	0.0422776
3474	0.0428588
3486	0.0412122
3498	0.0433915
3510	0.0435852
3522	0.0435368
3534	0.0480406
3546	0.0710439
3558	0.323693
3570	0.431978
3582	0.104847
3594	0.0527865
3606	0.0448928
3618	0.0423745
3630	0.039711
3642	0.0439726
3654	0.0420355
3666	0.0448443
3678	0.0416965
3690	0.0419386
3702	0.0437305
3714	0.0419871
3726	0.0437789
3738	0.0516727
3750	0.0425198
3762	0.0436336
3774	0.0464425
3786	0.0440695
3798	0.0421808
3810	0.0437789
3822	0.0425682
3834	0.0428104
3846	0.0459097
3858	0.0462487
3870	0.0441663
3882	0.0429556
3894	0.0461519
3906	0.0401952
3918	0.0449412
3930	0.0457645
3942	0.0443116
3954	0.0456192
3966	0.0462003
