Infrared Spectrum: Phenol, 2,3,5-trichloro-
Formula: C 6 H 3 Cl 3 O
CAS: 933-78-8
Origin: Sadtler Research Labs Under US-EPA Contract
1/CM	ABSORBANCE
450	0
462	0.0601251
474	0.0569655
486	0.0608685
498	0.105103
510	0.0788967
522	0.0415393
534	0.0475796
546	0.0934866
558	0.0345696
570	0.0878179
582	0.103988
594	0.209462
606	0.258528
618	0.187717
630	0.0979472
642	0.0627271
654	0.0514827
666	0.0669089
678	0.0674665
690	0.083729
702	0.0842866
714	0.0613331
726	0.0776886
738	0.0841937
750	0.0734139
762	0.0572443
774	0.0487877
786	0.0594746
798	0.0965532
810	0.11867
822	0.20686
834	0.466039
846	0.393833
858	0.206209
870	0.0792684
882	0.0542705
894	0.0572443
906	0.0529695
918	0.0688604
930	0.110307
942	0.310197
954	0.763226
966	0.241058
978	0.053713
990	0.0525049
1002	0.0481372
1014	0.0386585
1026	0.0310383
1038	0.055014
1050	0.149802
1062	0.0834502
1074	0.0547352
1086	0.0870745
1098	0.372274
1110	0.434443
1122	0.142553
1134	0.106311
1146	0.0985977
1158	0.206395
1170	0.484625
1182	0.345045
1194	0.0977613
1206	0.148501
1218	0.36772
1230	0.282876
1242	0.18149
1254	0.148593
1266	0.159466
1278	0.25667
1290	0.380173
1302	0.532297
1314	0.182977
1326	0.0739715
1338	0.0666301
1350	0.0712765
1362	0.0848442
1374	0.115511
1386	0.139301
1398	0.169781
1410	0.440483
1422	0.779767
1434	0.406193
1446	0.533134
1458	0.662955
1470	0.177773
1482	0.0989694
1494	0.0992482
1506	0.115604
1518	0.10659
1530	0.10724
1542	0.197474
1554	0.466225
1566	0.739901
1578	0.831064
1590	0.858571
1602	0.299603
1614	0.144319
1626	0.0846583
1638	0.0609614
1650	0.0470221
1662	0.054921
1674	0.0603109
1686	0.0541776
1698	0.0515756
1710	0.0604968
1722	0.0453494
1734	0.0376362
1746	0.0356847
1758	0.0312241
1770	0.0319676
1782	0.0302949
1794	0.0294585
1806	0.0294585
1818	0.0289009
1830	0.0283433
1842	0.0304807
1854	0.0300161
1866	0.0298302
1878	0.0310383
1890	0.0311312
1902	0.0307595
1914	0.0303878
1926	0.0274141
1938	0.0282504
1950	0.027507
1962	0.0286221
1974	0.0296444
1986	0.0300161
1998	0.0302019
2010	0.0297373
2022	0.0283433
2034	0.0286221
2046	0.0289938
2058	0.0289009
2070	0.0293656
2082	0.028808
2094	0.0287151
2106	0.0282504
2118	0.0280646
2130	0.028808
2142	0.0291797
2154	0.0302949
2166	0.0315029
2178	0.0323393
2190	0.0316888
2202	0.028808
2214	0.0295514
2226	0.0334544
2238	0.0329898
2250	0.0302019
2262	0.0313171
2274	0.0328039
2286	0.0323393
2298	0.0335474
2310	0.0357777
2322	0.0347554
2334	0.0330827
2346	0.0360565
2358	0.0360565
2370	0.0351272
2382	0.0384726
2394	0.0351272
2406	0.0335474
2418	0.0326181
2430	0.032711
2442	0.0356847
2454	0.0370787
2466	0.0361494
2478	0.0352201
2490	0.0359635
2502	0.037915
2514	0.0369857
2526	0.0365211
2538	0.0348484
2550	0.0342908
2562	0.0358706
2574	0.0354059
2586	0.0365211
2598	0.0382867
2610	0.0367999
2622	0.0373575
2634	0.0386585
2646	0.0386585
2658	0.0383797
2670	0.0388443
2682	0.0407958
2694	0.0442342
2706	0.0426544
2718	0.0407958
2730	0.0396807
2742	0.0398665
2754	0.0389373
2766	0.0381938
2778	0.0381009
2790	0.0394019
2802	0.0381938
2814	0.0372645
2826	0.0373575
2838	0.0388443
2850	0.0385655
2862	0.0399595
2874	0.0381938
2886	0.036614
2898	0.0357777
2910	0.0344767
2922	0.0346625
2934	0.0360565
2946	0.0349413
2958	0.0302019
2970	0.0292726
2982	0.0345696
2994	0.0373575
3006	0.037915
3018	0.0388443
3030	0.0385655
3042	0.0367999
3054	0.0376362
3066	0.0377292
3078	0.0373575
3090	0.0438625
3102	0.0429332
3114	0.0361494
3126	0.0339191
3138	0.0367999
3150	0.0407958
3162	0.0381938
3174	0.0357777
3186	0.0355918
3198	0.0359635
3210	0.0349413
3222	0.0355918
3234	0.0375433
3246	0.0385655
3258	0.0394948
3270	0.0449776
3282	0.0485089
3294	0.0421898
3306	0.0441413
3318	0.0426544
3330	0.0434908
3342	0.0436766
3354	0.0459069
3366	0.0467433
3378	0.0581736
3390	0.0435837
3402	0.0313171
3414	0.0420968
3426	0.0416322
3438	0.0408888
3450	0.0418181
3462	0.0410746
3474	0.0395878
3486	0.0370787
3498	0.0394948
3510	0.0394948
3522	0.0388443
3534	0.0435837
3546	0.0531554
3558	0.238084
3570	0.776236
3582	0.224516
3594	0.0496241
3606	0.040517
3618	0.0348484
3630	0.032711
3642	0.0666301
3654	0.0752725
3666	0.0451635
3678	0.0330827
3690	0.0324322
3702	0.0381938
3714	0.0334544
3726	0.0423756
3738	0.0870745
3750	0.0752725
3762	0.0411675
3774	0.0437696
3786	0.0434908
3798	0.0388443
3810	0.041911
3822	0.0443271
3834	0.0391231
3846	0.0417251
3858	0.0481372
3870	0.0400524
3882	0.0420968
3894	0.0436766
3906	0.0446988
3918	0.0359635
3930	0.0273211
3942	0.027507
3954	0.0522261
3966	0.0512968
