Infrared Spectrum: .alpha.-Methyl-1-piperidineethanol
Formula: C 8 H 17 N O
CAS: 934-90-7
Origin: Sadtler Research Labs Under US-EPA Contract
1/CM	ABSORBANCE
450	0.0374062
462	0.0308542
474	0.0382997
486	0.0382401
498	0.0266251
510	0.0254934
522	0.0226939
534	0.0149506
546	0.0137593
558	0.0104237
570	0.0103046
582	0.0089346
594	0.00875591
606	0.00911329
618	0.0053012
630	0.00476512
642	0.00577771
654	0.00559902
666	0.0044673
678	0.00613509
690	0.00607553
702	0.00643291
714	0.00714768
726	0.00655204
738	0.00649248
750	0.00702855
762	0.0111385
774	0.026089
786	0.0293651
798	0.0124489
810	0.0108406
822	0.0124489
834	0.0238256
846	0.029782
858	0.0344876
870	0.0265655
882	0.0157249
894	0.0185244
906	0.0229321
918	0.0187627
930	0.0287098
942	0.0366914
954	0.0247191
966	0.0183457
978	0.018167
990	0.0348449
1002	0.0514037
1014	0.0236469
1026	0.036334
1038	0.0699877
1050	0.103284
1062	0.110432
1074	0.0679625
1086	0.0656991
1098	0.0821388
1110	0.0695112
1122	0.0922051
1134	0.0647461
1146	0.0537863
1158	0.0921455
1170	0.0487829
1182	0.0189414
1194	0.0175714
1206	0.0216813
1218	0.0254934
1230	0.0240639
1242	0.0344876
1254	0.0617083
1266	0.0778501
1278	0.0954215
1290	0.0722511
1302	0.0682008
1314	0.0824366
1326	0.100127
1338	0.0657587
1350	0.0459834
1362	0.0434817
1374	0.067903
1386	0.0692729
1398	0.055871
1410	0.0633761
1422	0.0409205
1434	0.0369297
1446	0.0619466
1458	0.0710599
1470	0.0449113
1482	0.0179883
1494	0.00816027
1506	0.00571814
1518	0.00506294
1530	0.00309733
1542	0.00387166
1554	0.0038121
1566	0.00250169
1578	0.00351428
1590	0.00315689
1602	0.002323
1614	0.00250169
1626	0.00136997
1638	0.00279951
1650	0.00131041
1662	0.00202518
1674	0.00190605
1686	0.00416948
1698	0.0038121
1710	0.00268038
1722	0.00345471
1734	0.00285907
1746	0.00160823
1758	0.00196561
1770	0.00220387
1782	0.00262082
1794	0.00166779
1806	0.00184648
1818	0.00113172
1830	0.00113172
1842	0.0021443
1854	0.00059564
1866	0.00131041
1878	0.000833896
1890	0.00131041
1902	0.00184648
1914	0.0014891
1926	0.00089346
1938	0.00142954
1950	0.000953024
1962	0.00101259
1974	0.00125084
1986	0.000476512
1998	0.000178692
2010	0.000238256
2022	0.000357384
2034	0.00131041
2046	0.000655204
2058	0.00202518
2070	0.00315689
2082	0.00184648
2094	0.000655204
2106	0.00154866
2118	0.00131041
2130	0.00160823
2142	0.00142954
2154	0.00208474
2166	0.00184648
2178	0.00142954
2190	0.00178692
2202	0.00190605
2214	0.00238256
2226	0.00250169
2238	0.00303776
2250	0.00303776
2262	0.00273994
2274	0.00291864
2286	0.00256125
2298	0.00226343
2310	0.00226343
2322	0.002323
2334	0.00238256
2346	0.00172736
2358	0.00291864
2370	0.00119128
2382	0.002323
2394	0.00339515
2406	0.00357384
2418	0.00345471
2430	0.00345471
2442	0.00321646
2454	0.00250169
2466	0.00321646
2478	0.00351428
2490	0.0038121
2502	0.00440774
2514	0.00458643
2526	0.00357384
2538	0.0038121
2550	0.00428861
2562	0.00494381
2574	0.00583727
2586	0.0067903
2598	0.00857722
2610	0.00857722
2622	0.00970893
2634	0.0132232
2646	0.0176309
2658	0.0172736
2670	0.0207878
2682	0.029782
2694	0.0320454
2706	0.0327006
2718	0.0365127
2730	0.044673
2742	0.0606957
2754	0.0776119
2766	0.0872017
2778	0.10245
2790	0.152841
2802	0.17071
2814	0.136819
2826	0.102748
2838	0.0705238
2850	0.0692134
2862	0.128658
2874	0.145217
2886	0.107156
2898	0.0981019
2910	0.10799
2922	0.188401
2934	0.378231
2946	0.59564
2958	0.282393
2970	0.128063
2982	0.126037
2994	0.0686177
3006	0.0184053
3018	0.0114959
3030	0.00929198
3042	0.00851765
3054	0.00804114
3066	0.00738594
3078	0.00738594
3090	0.0082794
3102	0.00684986
3114	0.00637335
3126	0.00607553
3138	0.00655204
3150	0.00756463
3162	0.00708812
3174	0.00690942
3186	0.00863678
3198	0.00875591
3210	0.00696899
3222	0.00667117
3234	0.00708812
3246	0.00410992
3258	0.00553945
3270	0.0082794
3282	0.00422904
3294	0.00351428
3306	0.0038121
3318	0.00273994
3330	0.00506294
3342	0.00518207
3354	0.00375253
3366	0.0053012
3378	0.00619466
3390	0.00792201
3402	0.00393122
3414	0.00321646
3426	0.00637335
3438	0.0173331
3450	0.0201326
3462	0.0155462
3474	0.0107811
3486	0.00845809
3498	0.0144145
3510	0.0449113
3522	0.050272
3534	0.0347854
3546	0.0209665
3558	0.0159632
3570	0.0145336
3582	0.0131041
3594	0.0103046
3606	0.00416948
3618	0.00649248
3630	0.00357384
3642	0.00619466
3654	0.00768376
3666	0.00702855
3678	0.00655204
3690	0.00488425
3702	0.00536076
3714	0.00452686
3726	0.0081007
3738	0.00476512
3750	0.0074455
3762	0.00279951
3774	0.00524163
3786	0.00547989
3798	0.00702855
3810	0.00500338
3822	0.00714768
3834	0.00613509
3846	0.00804114
3858	0.00607553
3870	0.00518207
3882	0.00542032
3894	0.00720724
3906	0.00988762
3918	0.0066116
3930	0.00434817
3942	0.0051225
3954	0.00494381
3966	0.00500338
