Infrared Spectrum: Phenol, 2,3,5,6-tetrachloro-
Formula: C 6 H 2 Cl 4 O
CAS: 935-95-5
Origin: Sadtler Research Labs Under US-EPA Contract
1/CM	ABSORBANCE
450	0.11296
462	0.0432506
474	0.0341917
486	0.0187806
498	0.0156321
510	0.0193882
522	0.0149692
534	0.0111026
546	0.0180625
558	0.0217634
570	0.0904782
582	0.0410411
594	0.0204377
606	0.0383345
618	0.00988742
630	0.00613131
642	0.0101636
654	0.0153006
666	0.0162949
678	0.0253538
690	0.129641
702	0.234371
714	0.0905334
726	0.0267347
738	0.0285023
750	0.0414277
762	0.0228129
774	0.0157978
786	0.0144721
798	0.0190568
810	0.0373402
822	0.0314299
834	0.0507628
846	0.0807565
858	0.0302699
870	0.0286128
882	0.0157978
894	0.0156321
906	0.016792
918	0.019112
930	0.0203825
942	0.0593798
954	0.343077
966	0.310984
978	0.0260719
990	0.02331
1002	0.018173
1014	0.00961124
1026	0.00861697
1038	0.0101084
1050	0.0149692
1062	0.0176206
1074	0.0166263
1086	0.0144721
1098	0.0352412
1110	0.0976038
1122	0.0635778
1134	0.0713662
1146	0.128481
1158	0.154222
1170	0.136656
1182	0.136435
1194	0.0340812
1206	0.0849545
1218	0.267347
1230	0.0993714
1242	0.0431953
1254	0.0517018
1266	0.0332527
1278	0.110584
1290	0.465206
1302	0.21432
1314	0.0385554
1326	0.0182834
1338	0.0160187
1350	0.0125388
1362	0.0181177
1374	0.0224815
1386	0.0583855
1398	0.322971
1410	0.517184
1422	0.217799
1434	0.171566
1446	0.229399
1458	0.162618
1470	0.0367326
1482	0.0173997
1494	0.0208796
1506	0.0258509
1518	0.0222605
1530	0.0321479
1542	0.13511
1554	0.245142
1566	0.162397
1578	0.0862802
1590	0.0235862
1602	0.015853
1614	0.0119312
1626	0.0138645
1638	0.0119864
1650	0.0130359
1662	0.00789889
1674	0.0119864
1686	0.0145826
1698	0.0105503
1710	0.00563417
1722	0.00591036
1734	0.00878268
1746	0.00828555
1758	0.00690463
1770	0.00629702
1782	0.0050818
1794	0.00541323
1806	0.00519228
1818	0.00480562
1830	0.0059656
1842	0.00375612
1854	0.00375612
1866	0.00425325
1878	0.00408754
1890	0.00381135
1902	0.00408754
1914	0.00475038
1926	0.00419801
1938	0.00430849
1950	0.00497133
1962	0.00259614
1974	0.0040323
1986	0.00314851
1998	0.00375612
2010	0.00480562
2022	0.00436372
2034	0.00557894
2046	0.00353517
2058	0.0029828
2070	0.00259614
2082	0.00303804
2094	0.00336946
2106	0.00353517
2118	0.00347993
2130	0.00281709
2142	0.00237519
2154	0.00121521
2166	0.00176758
2178	0.0025409
2190	0.00138093
2202	0.00287232
2214	0.00347993
2226	0.00243043
2238	0.00303804
2250	0.00359041
2262	0.00270661
2274	0.0029828
2286	0.00220948
2298	0.00259614
2310	0.00364564
2322	0.0055237
2334	0.00491609
2346	0.00452943
2358	0.00546846
2370	0.00613131
2382	0.00480562
2394	0.00320375
2406	0.00320375
2418	0.00336946
2430	0.00325898
2442	0.00325898
2454	0.00325898
2466	0.00381135
2478	0.00276185
2490	0.00397706
2502	0.0065732
2514	0.00591036
2526	0.00419801
2538	0.00353517
2550	0.00359041
2562	0.00237519
2574	0.0019333
2586	0.00209901
2598	0.00165711
2610	0.0025409
2622	0.00231995
2634	0.00276185
2646	0.0025409
2658	0.00226472
2670	0.00243043
2682	0.00154664
2694	0.00259614
2706	0.00138093
2718	0.00182282
2730	0.00165711
2742	0.00176758
2754	0.0014914
2766	0.00121521
2778	0.00121521
2790	0.00237519
2802	0.00243043
2814	0.00386659
2826	0.00160187
2838	0.00209901
2850	0.000718081
2862	0.0019333
2874	0.00154664
2886	0
2898	0.000165711
2910	0.00055237
2922	0.000220948
2934	0.000386659
2946	0.00132569
2958	0.00243043
2970	0.00226472
2982	0.00292756
2994	0.0029828
3006	0.00342469
3018	0.00336946
3030	0.00281709
3042	0.00259614
3054	0.00248567
3066	0.00381135
3078	0.00370088
3090	0.00613131
3102	0.00817508
3114	0.00397706
3126	0.00613131
3138	0.00712557
3150	0.00497133
3162	0.00441896
3174	0.00397706
3186	0.00497133
3198	0.0044742
3210	0.00458467
3222	0.00602083
3234	0.00441896
3246	0.00452943
3258	0.00613131
3270	0.00497133
3282	0.00425325
3294	0.00458467
3306	0.00585512
3318	0.00574465
3330	0.00579989
3342	0.00690463
3354	0.00530275
3366	0.00767794
3378	0.00342469
3390	0.00220948
3402	0.00591036
3414	0.00756747
3426	0.00811984
3438	0.00789889
3450	0.00911411
3462	0.00933505
3474	0.00784365
3486	0.00983219
3498	0.0109922
3510	0.0117655
3522	0.0134226
3534	0.016074
3546	0.0808117
3558	0.469901
3570	0.180294
3582	0.0293861
3594	0.017013
3606	0.0141407
3618	0.0148035
3630	0.0154664
3642	0.0117102
3654	0.0175101
3666	0.0107712
3678	0.0132016
3690	0.0140302
3702	0.0099979
3714	0.0130912
3726	0.0219843
3738	0.030988
3750	0.0182282
3762	0.00911411
3774	0.00922458
3786	0.007457
3798	0.0109369
3810	0.0100531
3822	0.0119864
3834	0.0118207
3846	0.0114893
3858	0.0148588
3870	0.013975
3882	0.0135331
3894	0.0124836
3906	0.0176758
3918	0.00800936
3930	0.00751223
3942	0.0133674
3954	0.0133121
3966	0.0133674
