Infrared Spectrum: 1-Phenyl-1-cyclopropanecarbonitrile
Formula: C 10 H 9 N
CAS: 935-44-4
Origin: Sadtler Research Labs Under US-EPA Contract
1/CM	ABSORBANCE
450	0
462	0.0148672
474	0.0173064
486	0.0491315
498	0.103606
510	0.0832796
522	0.0290375
534	0.0227073
546	0.0296183
558	0.0592365
570	0.138683
582	0.0809566
594	0.0278179
606	0.0200359
618	0.0202682
630	0.016261
642	0.0150414
654	0.029386
666	0.0731164
678	0.212961
690	0.424702
702	0.451243
714	0.17649
726	0.0829892
738	0.152621
750	0.409603
762	0.355942
774	0.114175
786	0.0352515
798	0.0186421
810	0.0167256
822	0.0142284
834	0.0197455
846	0.0296763
858	0.0589461
870	0.0493638
882	0.0289794
894	0.02323
906	0.0260757
918	0.0306055
930	0.0602819
942	0.207444
954	0.15297
966	0.0499445
978	0.0243915
990	0.0212555
1002	0.023985
1014	0.030954
1026	0.171902
1038	0.192402
1050	0.0874029
1062	0.0823504
1074	0.0960561
1086	0.0631856
1098	0.118589
1110	0.136592
1122	0.022417
1134	0.0130088
1146	0.0138219
1158	0.0169579
1170	0.0157964
1182	0.0163191
1194	0.0137638
1206	0.0109762
1218	0.0114408
1230	0.0221847
1242	0.0422205
1254	0.0438466
1266	0.0239269
1278	0.0231139
1290	0.0293279
1302	0.0349612
1314	0.0861252
1326	0.0676574
1338	0.0297344
1350	0.017829
1362	0.017016
1374	0.018584
1386	0.0205586
1398	0.020152
1410	0.0303152
1422	0.0738714
1434	0.143155
1446	0.169811
1458	0.146697
1470	0.0867641
1482	0.0760202
1494	0.16743
1506	0.271036
1518	0.0516287
1530	0.0228816
1542	0.0195713
1554	0.015506
1566	0.0187582
1578	0.0368776
1590	0.0756717
1602	0.175909
1614	0.101573
1626	0.0267145
1638	0.0160287
1650	0.0175386
1662	0.0242754
1674	0.0246819
1686	0.0199197
1698	0.0166675
1710	0.0188163
1722	0.0241592
1734	0.0254369
1746	0.0254369
1758	0.0176548
1770	0.0138219
1782	0.0231139
1794	0.0425109
1806	0.0365873
1818	0.027121
1830	0.0203263
1842	0.0151576
1854	0.0168998
1866	0.0268887
1878	0.0357742
1890	0.038678
1902	0.0272953
1914	0.020907
1926	0.0215458
1938	0.0310121
1950	0.0375745
1962	0.0382714
1974	0.0254949
1986	0.0198617
1998	0.0149834
2010	0.014751
2022	0.0148672
2034	0.0124281
2046	0.0113827
2058	0.0110923
2070	0.0122538
2082	0.0152157
2094	0.0212555
2106	0.025553
2118	0.0179452
2130	0.0168998
2142	0.0160287
2154	0.0118473
2166	0.0110343
2178	0.0124861
2190	0.0138799
2202	0.0153318
2214	0.0245077
2226	0.0830473
2238	0.187292
2250	0.128636
2262	0.0533709
2274	0.0250303
2286	0.017016
2298	0.0149253
2310	0.0148091
2322	0.0173064
2334	0.0153318
2346	0.0152737
2358	0.0169579
2370	0.0130669
2382	0.0132411
2394	0.0126604
2406	0.0121957
2418	0.0119635
2430	0.0118473
2442	0.0119635
2454	0.0119635
2466	0.0127184
2478	0.0137057
2490	0.0158545
2502	0.0164352
2514	0.0135315
2526	0.0119635
2538	0.0120215
2550	0.0124861
2562	0.0121957
2574	0.0121377
2586	0.0126604
2598	0.0141122
2610	0.0135315
2622	0.0119635
2634	0.01237
2646	0.0121957
2658	0.0122538
2670	0.0120796
2682	0.0114408
2694	0.0117312
2706	0.0119635
2718	0.0113246
2730	0.0110343
2742	0.0112085
2754	0.0113246
2766	0.0114988
2778	0.0121957
2790	0.0124861
2802	0.0131249
2814	0.0134734
2826	0.0127765
2838	0.0121957
2850	0.0130088
2862	0.015506
2874	0.0188163
2886	0.019397
2898	0.0197455
2910	0.0213716
2922	0.0213135
2934	0.0210812
2946	0.0211393
2958	0.0204424
2970	0.0215458
2982	0.0254369
2994	0.0319413
3006	0.0505833
3018	0.116905
3030	0.238398
3042	0.288168
3054	0.205295
3066	0.229861
3078	0.299377
3090	0.176141
3102	0.18613
3114	0.152853
3126	0.0522094
3138	0.0245077
3150	0.020152
3162	0.0209651
3174	0.0228235
3186	0.0210232
3198	0.0184679
3210	0.0155641
3222	0.0127765
3234	0.0124861
3246	0.0116731
3258	0.0120796
3270	0.01237
3282	0.0128346
3294	0.0121377
3306	0.0119054
3318	0.0119635
3330	0.0123119
3342	0.0115569
3354	0.0117892
3366	0.0116731
3378	0.011615
3390	0.0114408
3402	0.0119635
3414	0.0118473
3426	0.0114988
3438	0.0124861
3450	0.0119054
3462	0.0121377
3474	0.0138799
3486	0.0159126
3498	0.0150995
3510	0.0138799
3522	0.0127765
3534	0.0125442
3546	0.0130669
3558	0.0124861
3570	0.0126023
3582	0.0110923
3594	0.0117312
3606	0.0116731
3618	0.0121957
3630	0.0111504
3642	0.0128346
3654	0.0129507
3666	0.0137057
3678	0.0132992
3690	0.0132992
3702	0.0122538
3714	0.0130088
3726	0.01237
3738	0.0122538
3750	0.0125442
3762	0.0117312
3774	0.0111504
3786	0.0106858
3798	0.0106858
3810	0.0106858
3822	0.0106858
3834	0.0107439
3846	0.010802
3858	0.0112666
3870	0.0124861
3882	0.0121957
3894	0.0119635
3906	0.0113827
3918	0.0111504
3930	0.0112085
3942	0.0106277
3954	0.013938
3966	0.0134153
