Infrared Spectrum: 3-Furoic acid, tetrahydro-2-oxo-, ethyl ester
Formula: C 7 H 10 O 4
CAS: 936-13-0
Origin: Sadtler Research Labs Under US-EPA Contract
1/CM	ABSORBANCE
450	0.00460744
462	0.00373261
474	0.00174966
486	0.010148
498	0.00816508
510	0.00559891
522	0.00734857
534	0.00466576
546	0.00122476
558	0.00501569
570	0.00221624
582	0.00431583
594	0.00454912
606	0.00326603
618	0.00349932
630	0.00612381
642	0.00664871
654	0.00705696
666	0.010498
678	0.0208793
690	0.013589
702	0.0047824
714	0.000991474
726	0.00169134
738	0.00244952
750	0.00425751
762	0.00682367
774	0.00629878
786	0.00787347
798	0.00915655
810	0.00950649
822	0.00933152
834	0.0131808
846	0.020821
858	0.0271197
870	0.0188963
882	0.0132974
894	0.013939
906	0.0141722
918	0.0264782
930	0.0339434
942	0.0354015
954	0.0369761
966	0.0218124
978	0.017205
990	0.0264782
1002	0.0590219
1014	0.104455
1026	0.139098
1038	0.229964
1050	0.215791
1062	0.138515
1074	0.0918571
1086	0.0805427
1098	0.0832838
1110	0.095823
1122	0.159977
1134	0.401022
1146	0.566365
1158	0.357281
1170	0.225123
1182	0.24052
1194	0.2586
1206	0.192113
1218	0.170708
1230	0.169425
1242	0.158752
1254	0.198295
1266	0.150471
1278	0.090749
1290	0.0968728
1302	0.116936
1314	0.0962896
1326	0.102472
1338	0.105504
1350	0.0674786
1362	0.0600717
1374	0.141664
1386	0.0779765
1398	0.039309
1410	0.0305607
1422	0.0239703
1434	0.0215791
1446	0.0303274
1458	0.0426334
1470	0.0395423
1482	0.0302108
1494	0.0200628
1506	0.0116644
1518	0.00664871
1530	0.00501569
1542	0.00810676
1554	0.00402422
1566	0.00297442
1578	0.00460744
1590	0.00233288
1602	0.00279946
1614	0.00338268
1626	0.00437415
1638	0.00664871
1650	0.00618213
1662	0.00676535
1674	0.0076985
1686	0.011956
1698	0.0155137
1710	0.0233288
1722	0.0397173
1734	0.0938984
1746	0.290269
1758	0.450421
1770	0.278663
1782	0.142072
1794	0.183539
1806	0.399797
1818	0.58322
1830	0.36008
1842	0.125392
1854	0.0493987
1866	0.0249618
1878	0.0161552
1890	0.0124809
1902	0.00944816
1914	0.00729025
1926	0.00571556
1938	0.00454912
1950	0.00384925
1962	0.003441
1974	0.00309107
1986	0.00320771
1998	0.003441
2010	0.00320771
2022	0.00285778
2034	0.00349932
2046	0.00367429
2058	0.00373261
2070	0.00384925
2082	0.00384925
2094	0.00314939
2106	0.00215791
2118	0.00174966
2130	0.00151637
2142	0.00139973
2154	0.0010498
2166	0.000933152
2178	0.000466576
2190	0.000349932
2202	0.000758186
2214	0.0010498
2226	0.00151637
2238	0.00180798
2250	0.00204127
2262	0.00279946
2274	0.00338268
2286	0.00408254
2298	0.00425751
2310	0.00454912
2322	0.0047824
2334	0.00338268
2346	0.00425751
2358	0.00309107
2370	0.00332435
2382	0.00274113
2394	0.00134141
2406	0.00116644
2418	0.000758186
2430	0.000816508
2442	0.000699864
2454	0.000991474
2466	0.000991474
2478	0.00087483
2490	0.00110812
2502	0.00151637
2514	0.00174966
2526	0.0010498
2538	0.00087483
2550	0.00058322
2562	0.00029161
2574	0.00029161
2586	5.8322e-05
2598	0.000174966
2610	0.00029161
2622	0.000116644
2634	0.000349932
2646	0.000408254
2658	0.000641542
2670	0.00029161
2682	0.000933152
2694	0.000816508
2706	0.00145805
2718	0.00227456
2730	0.00303274
2742	0.0029161
2754	0.00233288
2766	0.00279946
2778	0.00297442
2790	0.00309107
2802	0.00320771
2814	0.00379093
2826	0.00484073
2838	0.0063571
2850	0.00839837
2862	0.012131
2874	0.0179632
2886	0.0307357
2898	0.0408837
2910	0.0707446
2922	0.0814758
2934	0.0594301
2946	0.0696365
2958	0.0706279
2970	0.0809509
2982	0.116761
2994	0.156828
3006	0.12965
3018	0.0569806
3030	0.0219291
3042	0.0114894
3054	0.00699864
3066	0.00524898
3078	0.00402422
3090	0.00379093
3102	0.00326603
3114	0.00244952
3126	0.00268281
3138	0.00250785
3150	0.00244952
3162	0.00256617
3174	0.00250785
3186	0.00250785
3198	0.00192463
3210	0.00198295
3222	0.00157469
3234	0.00145805
3246	0.00163302
3258	0.00157469
3270	0.000991474
3282	0.00122476
3294	0.000991474
3306	0.00122476
3318	0.00116644
3330	0.0010498
3342	0.0010498
3354	0.000933152
3366	0.00122476
3378	0.000933152
3390	0.00145805
3402	0.00139973
3414	0.00145805
3426	0.0010498
3438	0.00139973
3450	0.00128308
3462	0.00192463
3474	0.00209959
3486	0.00215791
3498	0.00244952
3510	0.00180798
3522	0.00116644
3534	0.0010498
3546	5.8322e-05
3558	0.00151637
3570	0.00134141
3582	0.00262449
3594	0.00431583
3606	0.00489905
3618	0.00454912
3630	0.00437415
3642	0.00309107
3654	0.00309107
3666	0.00326603
3678	0.00513234
3690	0.0047824
3702	0.00256617
3714	0.00157469
3726	0.000758186
3738	0.00209959
3750	0.0029161
3762	0.00163302
3774	0.00163302
3786	0.00122476
3798	0.00134141
3810	0.00221624
3822	0.00361596
3834	0.00244952
3846	0.000816508
3858	0.00262449
3870	0.0029161
3882	0.00180798
3894	0.00227456
3906	0.000933152
3918	0.00221624
3930	0.00163302
3942	0.00221624
3954	0.00303274
3966	0.00279946
