Infrared Spectrum: Isothiazole, 4-phenyl-
Formula: C 9 H 7 N S
CAS: 936-46-9
Origin: Sadtler Research Labs Under US-EPA Contract
1/CM	ABSORBANCE
450	0
462	0.00219264
474	0.00780793
486	0.017755
498	0.0502703
510	0.113482
522	0.104765
534	0.0336383
546	0.00925187
558	0.00470615
570	0.00278091
582	0.00139045
594	0.00395745
606	0.00935882
618	0.0188781
630	0.0571691
642	0.0560995
654	0.0478102
666	0.0517142
678	0.114605
690	0.250068
702	0.217232
714	0.0943904
726	0.0730523
738	0.220654
750	0.484413
762	0.355101
774	0.2006
786	0.271085
798	0.0872242
810	0.035724
822	0.0226751
834	0.0341196
846	0.162148
858	0.284455
870	0.0754589
882	0.0980805
894	0.082839
906	0.122039
918	0.139955
930	0.0177015
942	0.00668487
954	0.00497355
966	0.00700575
978	0.00673835
990	0.00604313
1002	0.0141719
1014	0.0209638
1026	0.0281834
1038	0.0247073
1050	0.0554577
1062	0.0270069
1074	0.0299482
1086	0.0285043
1098	0.0170063
1110	0.00951926
1122	0.00486659
1134	0.00385049
1146	0.00657792
1158	0.00834272
1170	0.0119258
1182	0.0324083
1194	0.0443876
1206	0.0303226
1218	0.0487194
1230	0.0758332
1242	0.0578643
1254	0.0220868
1266	0.0235842
1278	0.0264186
1290	0.025349
1302	0.0356705
1314	0.0382375
1326	0.0436389
1338	0.0503237
1350	0.0728384
1362	0.0401092
1374	0.0209103
1386	0.0120863
1398	0.00919839
1410	0.00823577
1422	0.0105354
1434	0.017755
1446	0.0303761
1458	0.02813
1470	0.0224077
1482	0.0822507
1494	0.0706992
1506	0.0175946
1518	0.0225147
1530	0.0641748
1542	0.0477567
1554	0.0218194
1566	0.0282369
1578	0.0423019
1590	0.0569017
1602	0.114445
1614	0.0595756
1626	0.0108028
1638	0.00984014
1650	0.012728
1662	0.0163111
1674	0.0105354
1686	0.00689879
1698	0.00812881
1710	0.00443876
1722	0.00679183
1734	0.011498
1746	0.013958
1758	0.0157763
1770	0.0201616
1782	0.0183968
1794	0.0243864
1806	0.0136371
1818	0.00834272
1830	0.00556182
1842	0.00369005
1854	0.00550834
1866	0.0114445
1878	0.0147067
1890	0.0157763
1902	0.0050805
1914	0.00390397
1926	0.00850316
1938	0.0148672
1950	0.0186107
1962	0.016632
1974	0.00251351
1986	0.000802185
1998	0.000802185
2010	0.00106958
2022	0.00123002
2034	0.0012835
2046	0.00144393
2058	0.000695227
2070	0.000695227
2082	0.00112306
2094	0.000855664
2106	0.00053479
2118	0.000427832
2130	0.000748706
2142	0.00133698
2154	0.000962622
2166	0.000909143
2178	0.000427832
2190	0.00053479
2202	0.00112306
2214	0.00224612
2226	0.00283439
2238	0.0033157
2250	0.00235308
2262	0.00219264
2274	0.0020322
2286	0.00256699
2298	0.00379701
2310	0.00615009
2322	0.00652444
2334	0.00246003
2346	0.00347613
2358	0.00288787
2370	0.00278091
2382	0.0043318
2394	0.00240655
2406	0.0020322
2418	0.00139045
2430	0.00165785
2442	0.00165785
2454	0.00106958
2466	0.00053479
2478	0.000748706
2490	0.000802185
2502	0.000802185
2514	0.00139045
2526	0.000909143
2538	0.000909143
2550	0.000855664
2562	0.000855664
2574	0.00117654
2586	0.00133698
2598	0.00181829
2610	0.00144393
2622	0.00155089
2634	0.00155089
2646	0.0010161
2658	0.000855664
2670	0.000695227
2682	0.000588269
2694	0.000855664
2706	0.00144393
2718	0.00192524
2730	0.00149741
2742	0.00165785
2754	0.0020322
2766	0.00213916
2778	0.00224612
2790	0.00251351
2802	0.00235308
2814	0.0020322
2826	0.00208568
2838	0.0033157
2850	0.00422484
2862	0.0043318
2874	0.0050805
2886	0.00513398
2898	0.00566877
2910	0.00545486
2922	0.00657792
2934	0.00770098
2946	0.00812881
2958	0.00657792
2970	0.0066314
2982	0.00679183
2994	0.0094123
3006	0.0173272
3018	0.0349218
3030	0.0957809
3042	0.168191
3054	0.109204
3066	0.189209
3078	0.240495
3090	0.139687
3102	0.0831598
3114	0.0404836
3126	0.0148137
3138	0.0104819
3150	0.00780793
3162	0.00631052
3174	0.00390397
3186	0.00213916
3198	0.00176481
3210	0.00149741
3222	0.00171133
3234	0.00165785
3246	0.00139045
3258	0.000909143
3270	0.0012835
3282	0.00155089
3294	0.000855664
3306	0.000855664
3318	0.000802185
3330	0.000695227
3342	0.00144393
3354	0.000748706
3366	0.0010161
3378	0.0012835
3390	0.0010161
3402	0.00133698
3414	0.00139045
3426	0.00144393
3438	0.00192524
3450	0.00133698
3462	0.00117654
3474	0.000695227
3486	0.000427832
3498	0.00144393
3510	0.000909143
3522	0.000427832
3534	0.00144393
3546	0.00112306
3558	0.0012835
3570	0.000588269
3582	0.00123002
3594	0.00053479
3606	0.00144393
3618	0.00187177
3630	0.000802185
3642	0.00256699
3654	0.00385049
3666	0.00278091
3678	0.00155089
3690	0.00315526
3702	0.00342266
3714	0.00352961
3726	0.00294135
3738	0.00299482
3750	0.0030483
3762	0.00326222
3774	0.00197872
3786	0.00213916
3798	0.000748706
3810	0.00133698
3822	0.0010161
3834	0.00112306
3846	0.00139045
3858	0.00139045
3870	0.00106958
3882	0.000588269
3894	0.000909143
3906	0.000427832
3918	0.000802185
3930	0.00176481
3942	0.00117654
3954	0.00213916
3966	0.00326222
