Infrared Spectrum: Cyclohexanone, 3-(1,1-dimethylethyl)-
Formula: C 10 H 18 O
CAS: 936-99-2
Origin: Sadtler Research Labs Under US-EPA Contract
1/CM	ABSORBANCE
450	0.00370604
462	0.00402371
474	0.00603556
486	0.00635322
498	0.0185302
510	0.0369546
522	0.0193773
534	0.0333544
546	0.0263659
558	0.00656499
570	0.00402371
582	0.0032825
594	0.00232951
606	0.00201185
618	0.00360016
630	0.00645911
642	0.0081533
654	0.00317661
666	0.00148242
678	0.00137653
690	0.00105887
702	0.000635322
714	0.00137653
726	0.00285895
738	0.00889451
750	0.0128123
762	0.0126006
774	0.00857685
786	0.00360016
798	0.000952983
810	0.00254129
822	0.00465903
834	0.00508258
846	0.00550612
858	0.012177
870	0.0148242
882	0.00952983
894	0.0208597
906	0.0081533
918	0.010271
930	0.0260482
942	0.0193773
954	0.00635322
966	0.00444725
978	0.00857685
990	0.0104828
1002	0.0138712
1014	0.0186361
1026	0.0129182
1038	0.0173655
1050	0.0398135
1062	0.0565437
1074	0.02626
1086	0.0186361
1098	0.0147183
1110	0.0104828
1122	0.00772975
1134	0.00921217
1146	0.0181067
1158	0.0446843
1170	0.0725326
1182	0.051567
1194	0.035578
1206	0.0502963
1218	0.131194
1230	0.19282
1242	0.147289
1254	0.05252
1266	0.0606733
1278	0.0731679
1290	0.0445784
1302	0.0335662
1314	0.0636381
1326	0.0585555
1338	0.0551671
1350	0.0758151
1362	0.095616
1374	0.179584
1386	0.0554848
1398	0.0851331
1410	0.0577084
1422	0.0606733
1434	0.0841802
1446	0.0607791
1458	0.0804741
1470	0.095616
1482	0.113193
1494	0.0455314
1506	0.011224
1518	0.00561201
1530	0.00317661
1542	0.00137653
1554	0.00105887
1566	0.000952983
1578	0.00148242
1590	0.00180008
1602	0.00211774
1614	0.00232951
1626	0.00391782
1638	0.00614145
1650	0.0081533
1662	0.012177
1674	0.0193773
1686	0.0353663
1698	0.0564378
1710	0.141783
1722	0.517576
1734	0.935512
1746	0.454996
1758	0.114464
1770	0.0480727
1782	0.027213
1794	0.0184243
1806	0.0160948
1818	0.0117535
1830	0.00624733
1842	0.00307072
1854	0.00148242
1866	0.00105887
1878	0.00105887
1890	0.00105887
1902	0.00105887
1914	0.00148242
1926	0.00169419
1938	0.00116476
1950	0.000741209
1962	0.000741209
1974	0.000847096
1986	0.000741209
1998	0.000317661
2010	0.000423548
2022	0
2034	0.000105887
2046	0.000317661
2058	0.000529435
2070	0.000741209
2082	0.00116476
2094	0.00148242
2106	0.00127064
2118	0.00116476
2130	0.000847096
2142	0.000529435
2154	0.000423548
2166	0.000529435
2178	0.00116476
2190	0.00127064
2202	0.00105887
2214	0.000635322
2226	0.000317661
2238	0.000317661
2250	0.000635322
2262	0.000105887
2274	0.000423548
2286	0.0015883
2298	0.0032825
2310	0.00349427
2322	0.00127064
2334	0
2346	0.000211774
2358	0
2370	0.000529435
2382	0.00275306
2394	0.00148242
2406	0.000847096
2418	0.000529435
2430	0
2442	0.000105887
2454	0.000317661
2466	0.000423548
2478	0.000211774
2490	0.000741209
2502	0.00105887
2514	0.000741209
2526	0.000741209
2538	0.000741209
2550	0.000847096
2562	0.00116476
2574	0.00127064
2586	0.00190597
2598	0.00285895
2610	0.00391782
2622	0.00434137
2634	0.00476491
2646	0.00614145
2658	0.00624733
2670	0.00592967
2682	0.00667088
2694	0.00667088
2706	0.00592967
2718	0.00677677
2730	0.00878862
2742	0.00772975
2754	0.00762386
2766	0.00921217
2778	0.00836507
2790	0.0100593
2802	0.0130241
2814	0.0169419
2826	0.0257305
2838	0.0473315
2850	0.0743327
2862	0.180643
2874	0.339897
2886	0.310778
2898	0.246505
2910	0.270541
2922	0.299448
2934	0.422807
2946	0.624098
2958	0.825389
2970	1.05887
2982	0.570625
2994	0.146336
3006	0.0453196
3018	0.027213
3030	0.0190597
3042	0.0133418
3054	0.0104828
3066	0.00900039
3078	0.00762386
3090	0.00614145
3102	0.00508258
3114	0.0048708
3126	0.0048708
3138	0.00550612
3150	0.00582378
3162	0.00624733
3174	0.00614145
3186	0.00720032
3198	0.00688265
3210	0.00688265
3222	0.00635322
3234	0.00529435
3246	0.00370604
3258	0.00232951
3270	0.00137653
3282	0.00201185
3294	0.0024354
3306	0.00232951
3318	0.00137653
3330	0.000952983
3342	0.00201185
3354	0.00127064
3366	0.00275306
3378	0.00264717
3390	0.00296484
3402	0.00360016
3414	0.00423548
3426	0.00592967
3438	0.0110122
3450	0.0118593
3462	0.00709443
3474	0.00264717
3486	0.00232951
3498	0.00137653
3510	0.00169419
3522	0.00180008
3534	0.00148242
3546	0.00169419
3558	0.000847096
3570	0.000847096
3582	0.00137653
3594	0.000952983
3606	0.000529435
3618	0.00148242
3630	0.00169419
3642	0.0015883
3654	0.00222363
3666	0.00137653
3678	0.000847096
3690	0.00105887
3702	0.000635322
3714	0.000635322
3726	0.00137653
3738	0.00190597
3750	0
3762	0.000741209
3774	0.000741209
3786	0.0015883
3798	0.00211774
3810	0.00105887
3822	0.00201185
3834	0.00105887
3846	0.00222363
3858	0.000741209
3870	0.000952983
3882	0.00190597
3894	0.00180008
3906	0.000317661
3918	0.00275306
3930	0.000847096
3942	0.000529435
3954	0.00127064
3966	0.00180008
