Infrared Spectrum: Ethanone, 1-(4-ethylphenyl)-
Formula: C 10 H 12 O
CAS: 937-30-4
Origin: Sadtler Research Labs Under US-EPA Contract
1/CM	ABSORBANCE
450	0.0291979
462	0.019366
474	0.0205577
486	0.0195149
498	0.0247289
510	0.0308366
522	0.0284531
534	0.0218984
546	0.023835
558	0.0597366
570	0.169378
582	0.112174
594	0.135562
606	0.0823799
618	0.023984
630	0.01445
642	0.0247289
654	0.0522881
666	0.0715051
678	0.0141521
690	0.00819329
702	0.0114706
714	0.00387319
726	0.00223453
738	0.0023835
750	0.000893814
762	0.00595876
774	0.0134072
786	0.0326242
798	0.0378381
810	0.0794005
822	0.160142
834	0.189935
846	0.144798
858	0.0473721
870	0.0153438
882	0.0102789
894	0.00789536
906	0.00819329
918	0.00938505
930	0.0189191
942	0.096085
954	0.219729
966	0.0968298
978	0.0393278
990	0.0214515
1002	0.0271124
1014	0.0922118
1026	0.0601835
1038	0.023984
1050	0.0333691
1062	0.0692706
1074	0.081486
1086	0.0370933
1098	0.019366
1110	0.0300917
1122	0.0390299
1134	0.0227923
1146	0.0134072
1158	0.0157907
1170	0.0344118
1182	0.235371
1194	0.12424
1206	0.0506495
1218	0.0706113
1230	0.154928
1242	0.233285
1254	0.555654
1266	1.38377
1278	0.284829
1290	0.112323
1302	0.108598
1314	0.0819329
1326	0.0679299
1338	0.0572041
1350	0.16044
1362	0.436479
1374	0.188893
1386	0.07225
1398	0.0890835
1410	0.193213
1422	0.152842
1434	0.121857
1446	0.100256
1458	0.0853592
1470	0.0825288
1482	0.047968
1494	0.0306876
1506	0.023835
1518	0.0220474
1530	0.0236861
1542	0.0186211
1554	0.0308366
1566	0.0606304
1578	0.0799964
1590	0.0676319
1602	0.206918
1614	0.399237
1626	0.101895
1638	0.038285
1650	0.0496067
1662	0.062269
1674	0.0692706
1686	0.223305
1698	1.0042
1710	1.27443
1722	0.240138
1734	0.0707603
1746	0.048117
1758	0.0369443
1770	0.0268144
1782	0.0119175
1794	0.00998092
1806	0.0175783
1818	0.0119175
1830	0.00387319
1842	0.00372422
1854	0.00283041
1866	0.00327732
1878	0.00729948
1890	0.0120665
1902	0.0151948
1914	0.0169825
1926	0.0189191
1938	0.0128113
1950	0.00729948
1962	0.00283041
1974	0.00223453
1986	0.00148969
1998	0.00134072
2010	0.00297938
2022	0.00491598
2034	0.00566082
2046	0.00387319
2058	0.00178763
2070	0.000446907
2082	0.000297938
2094	0.000297938
2106	0.000595876
2118	0.00104278
2130	0.000446907
2142	0.000893814
2154	0.000893814
2166	0.000893814
2178	0.00104278
2190	0.000446907
2202	0.000744845
2214	0.00223453
2226	0.0019366
2238	0.00134072
2250	0.00148969
2262	0.000446907
2274	0.000446907
2286	0.00104278
2298	0.00104278
2310	0.00119175
2322	0.000148969
2334	0
2346	0
2358	0
2370	0
2382	0
2394	0.00283041
2406	0.00283041
2418	0.00297938
2430	0.00402216
2442	0.00387319
2454	0.00297938
2466	0.00148969
2478	0.00134072
2490	0.0023835
2502	0.00327732
2514	0.00566082
2526	0.00849123
2538	0.00655464
2550	0.00536288
2562	0.00506495
2574	0.00476701
2586	0.00595876
2598	0.00655464
2610	0.00595876
2622	0.00789536
2634	0.00893814
2646	0.00729948
2658	0.00580979
2670	0.00461804
2682	0.00446907
2694	0.00506495
2706	0.00610773
2718	0.00551185
2730	0.00595876
2742	0.00759742
2754	0.00789536
2766	0.0105768
2778	0.0120665
2790	0.0117686
2802	0.0128113
2814	0.014301
2826	0.0180252
2838	0.0266655
2850	0.0399237
2862	0.0667381
2874	0.120516
2886	0.160887
2898	0.141521
2910	0.134817
2922	0.13288
2934	0.190382
2946	0.285872
2958	0.214962
2970	0.370337
2982	0.538225
2994	0.164909
3006	0.134817
3018	0.148224
3030	0.141223
3042	0.152395
3054	0.102044
3066	0.0883386
3078	0.0794005
3090	0.0840185
3102	0.0621201
3114	0.033816
3126	0.0289
3138	0.0201108
3150	0.0151948
3162	0.0123644
3174	0.0104278
3186	0.00983195
3198	0.00804433
3210	0.00700154
3222	0.00610773
3234	0.00610773
3246	0.00521391
3258	0.00521391
3270	0.00580979
3282	0.00506495
3294	0.00566082
3306	0.00595876
3318	0.0062567
3330	0.00610773
3342	0.00700154
3354	0.00700154
3366	0.00938505
3378	0.0175783
3390	0.0303897
3402	0.0189191
3414	0.00789536
3426	0.00640567
3438	0.00700154
3450	0.0062567
3462	0.0062567
3474	0.00595876
3486	0.00461804
3498	0.00551185
3510	0.00640567
3522	0.00610773
3534	0.0067036
3546	0.0043201
3558	0.0043201
3570	0.00476701
3582	0.00819329
3594	0.00283041
3606	0.00700154
3618	0.00551185
3630	0.00446907
3642	0.00491598
3654	0.00387319
3666	0.0132582
3678	0.00104278
3690	0.00744845
3702	0.00938505
3714	0.0062567
3726	0.00789536
3738	0.00446907
3750	0.0107258
3762	0.00878917
3774	0.00804433
3786	0.00968298
3798	0.00700154
3810	0.0131093
3822	0.00402216
3834	0.00655464
3846	0.00566082
3858	0.00446907
3870	0.00640567
3882	0.0062567
3894	0.00744845
3906	0.00819329
3918	0.00923608
3930	0.0108747
3942	0.0110237
3954	0.0119175
3966	0.0110237
