Infrared Spectrum: Benzene, 1-ethynyl-4-nitro-
Formula: C 8 H 5 N O 2
CAS: 937-31-5
Origin: Sadtler Research Labs Under US-EPA Contract
1/CM	ABSORBANCE
450	0
462	0.00497922
474	0.00621064
486	0.0114576
498	0.0118859
510	0.0103332
522	0.0130638
534	0.0107615
546	0.00995844
558	0.0162762
570	0.0194886
582	0.0149912
594	0.0138133
606	0.0116717
618	0.0289651
630	0.123624
642	0.131601
654	0.13899
666	0.0578232
678	0.0286439
690	0.0248961
702	0.0166509
714	0.00926242
726	0.00872702
738	0.0274125
750	0.0684241
762	0.0438493
774	0.0291258
786	0.0117253
798	0.0102261
810	0.0125284
822	0.0148306
834	0.0262881
846	0.110399
858	0.240876
870	0.0653723
882	0.0145629
894	0.00915534
906	0.00797746
918	0.00626418
930	0.00503276
942	0.00471152
954	0.005354
966	0.00540754
978	0.00465798
990	0.0048186
1002	0.00701374
1014	0.0270912
1026	0.0116182
1038	0.00551462
1050	0.00556816
1062	0.00894118
1074	0.0104403
1086	0.0131173
1098	0.0305178
1110	0.040155
1122	0.016758
1134	0.00931596
1146	0.008031
1158	0.0106009
1170	0.0216302
1182	0.0297147
1194	0.0169722
1206	0.0126354
1218	0.0108686
1230	0.0154195
1242	0.0255921
1254	0.10633
1266	0.0877521
1278	0.0619458
1290	0.0496851
1302	0.0268771
1314	0.0283227
1326	0.0468475
1338	0.249764
1350	0.5354
1362	0.183214
1374	0.0687454
1386	0.0305713
1398	0.021416
1410	0.0202381
1422	0.0262881
1434	0.0328736
1446	0.0230757
1458	0.0184713
1470	0.0267165
1482	0.0516661
1494	0.0796675
1506	0.044813
1518	0.101565
1530	0.290936
1542	0.369801
1554	0.181715
1566	0.0492568
1578	0.0573949
1590	0.130798
1602	0.17272
1614	0.0713688
1626	0.0262346
1638	0.0150983
1650	0.0162762
1662	0.0126354
1674	0.0156872
1686	0.0156337
1698	0.0124748
1710	0.00819162
1722	0.00835224
1734	0.0109757
1746	0.00878056
1758	0.0111899
1770	0.0190067
1782	0.0172399
1794	0.0209877
1806	0.0157408
1818	0.00851286
1830	0.00626418
1842	0.00417612
1854	0.00353364
1866	0.00406904
1878	0.00315886
1890	0.00439028
1902	0.0056217
1914	0.00867348
1926	0.0102261
1938	0.00738852
1950	0.00358718
1962	0.00331948
1974	0.00310532
1986	0.00230222
1998	0.00230222
2010	0.00208806
2022	0.00251638
2034	0.00256992
2046	0.00251638
2058	0.00289116
2070	0.00380134
2082	0.00390842
2094	0.0042832
2106	0.00513984
2118	0.005354
2130	0.00406904
2142	0.00235576
2154	0.00331948
2166	0.00471152
2178	0.00556816
2190	0.00556816
2202	0.0056217
2214	0.00460444
2226	0.00342656
2238	0.00310532
2250	0.00235576
2262	0.00283762
2274	0.00412258
2286	0.00610356
2298	0.00904826
2310	0.0118323
2322	0.0096372
2334	0.00663896
2346	0.0096372
2358	0.00840578
2370	0.00663896
2382	0.00947658
2394	0.00278408
2406	0.00208806
2418	0.0016062
2430	0.00219514
2442	0.00337302
2454	0.0042832
2466	0.00310532
2478	0.00203452
2490	0.00176682
2502	0.00165974
2514	0.00155266
2526	0.00171328
2538	0.00139204
2550	0.0018739
2562	0.00208806
2574	0.0018739
2586	0.00208806
2598	0.00230222
2610	0.00230222
2622	0.0018739
2634	0.00176682
2646	0.00208806
2658	0.00192744
2670	0.00289116
2682	0.00353364
2694	0.0045509
2706	0.00412258
2718	0.00289116
2730	0.0024093
2742	0.00219514
2754	0.00224868
2766	0.00246284
2778	0.00273054
2790	0.00289116
2802	0.00251638
2814	0.002677
2826	0.00289116
2838	0.00315886
2850	0.00476506
2862	0.008031
2874	0.0108151
2886	0.00947658
2898	0.00605002
2910	0.00433674
2922	0.00567524
2934	0.00840578
2946	0.00744206
2958	0.00540754
2970	0.0037478
2982	0.0024093
2994	0.00230222
3006	0.00208806
3018	0.00219514
3030	0.00208806
3042	0.00198098
3054	0.00310532
3066	0.00712082
3078	0.0115111
3090	0.0145093
3102	0.00476506
3114	0.00256992
3126	0.00208806
3138	0.00171328
3150	0.00144558
3162	0.00155266
3174	0.00165974
3186	0.00149912
3198	0.00251638
3210	0.00251638
3222	0.00230222
3234	0.00262346
3246	0.00305178
3258	0.00369426
3270	0.0061571
3282	0.0132244
3294	0.0279479
3306	0.0647834
3318	0.0921959
3330	0.164796
3342	0.0157943
3354	0.00915534
3366	0.00599648
3378	0.00305178
3390	0.00299824
3402	0.002677
3414	0.00315886
3426	0.002677
3438	0.00224868
3450	0.00224868
3462	0.00262346
3474	0.00246284
3486	0.00224868
3498	0.00155266
3510	0.00219514
3522	0.00251638
3534	0.0021416
3546	0.00364072
3558	0.00299824
3570	0.00524692
3582	0.00653188
3594	0.00551462
3606	0.00278408
3618	0.00310532
3630	0.0064248
3642	0.00278408
3654	0.00278408
3666	0.0018739
3678	0.00439028
3690	0.00342656
3702	0.00358718
3714	0.00380134
3726	0.00358718
3738	0.00492568
3750	0.00273054
3762	0.002677
3774	0.00315886
3786	0.00149912
3798	0.0024093
3810	0.00192744
3822	0.00305178
3834	0.0032124
3846	0.00310532
3858	0.00422966
3870	0.00390842
3882	0.00299824
3894	0.00465798
3906	0.0040155
3918	0.0042832
3930	0.0048186
3942	0.00476506
3954	0.00524692
3966	0.00353364
