Infrared Spectrum: .gamma.-Chlorobutyrophenone
Formula: C 10 H 11 Cl O
CAS: 939-52-6
Origin: Sadtler Research Labs Under US-EPA Contract
1/CM	ABSORBANCE
450	0.116689
462	0.042439
474	0.0323275
486	0.0213302
498	0.0354274
510	0.0375678
522	0.0346155
534	0.0368297
546	0.0369035
558	0.0563885
570	0.0736594
582	0.0702643
594	0.0653192
606	0.0546172
618	0.0530672
630	0.0646549
642	0.0888636
654	0.116246
666	0.124881
678	0.170273
690	0.277957
702	0.220462
714	0.212933
726	0.20105
738	0.235813
750	0.241201
762	0.155438
774	0.112187
786	0.0722571
798	0.0634002
810	0.0671644
822	0.0709285
834	0.0660573
846	0.0526982
858	0.0647287
870	0.077645
882	0.0647287
894	0.0522554
906	0.0481222
918	0.05661
930	0.0817782
942	0.116394
954	0.162228
966	0.164073
978	0.169608
990	0.16673
1002	0.175808
1014	0.10023
1026	0.121413
1038	0.0850257
1050	0.105913
1062	0.151821
1074	0.0893803
1086	0.0606694
1098	0.0555767
1110	0.0494507
1122	0.0456127
1134	0.0518125
1146	0.0698952
1158	0.0804496
1170	0.0929968
1182	0.20105
1194	0.123258
1206	0.166656
1218	0.353019
1230	0.399739
1242	0.267034
1254	0.231902
1266	0.204298
1278	0.172487
1290	0.19522
1302	0.238766
1314	0.219428
1326	0.197581
1338	0.128572
1350	0.14695
1362	0.203855
1374	0.15278
1386	0.0847304
1398	0.058898
1410	0.067681
1422	0.0839924
1434	0.0992704
1446	0.19057
1458	0.164147
1470	0.0603741
1482	0.0473841
1494	0.0579385
1506	0.0426604
1518	0.0314418
1530	0.0312204
1542	0.0318108
1554	0.0309989
1566	0.0398558
1578	0.0723309
1590	0.0901183
1602	0.107094
1614	0.0610384
1626	0.0433247
1638	0.0495983
1650	0.0535101
1662	0.0625883
1674	0.0793425
1686	0.198246
1698	0.640128
1710	0.572226
1722	0.135879
1734	0.0604479
1746	0.0574218
1758	0.0574957
1770	0.0488602
1782	0.0322537
1794	0.0306299
1806	0.0388225
1818	0.0333608
1830	0.0249468
1842	0.0202969
1854	0.0197065
1866	0.0195589
1878	0.0222159
1890	0.0278252
1902	0.0282681
1914	0.025611
1926	0.0213302
1938	0.0236182
1950	0.0288585
1962	0.0304085
1974	0.0256848
1986	0.0180827
1998	0.0156471
2010	0.0152042
2022	0.01454
2034	0.01299
2046	0.0135805
2058	0.0137281
2070	0.0141709
2082	0.0138019
2094	0.0135067
2106	0.0135067
2118	0.01299
2130	0.0128424
2142	0.012621
2154	0.0127686
2166	0.0123258
2178	0.0121782
2190	0.0113663
2202	0.0114401
2214	0.0113663
2226	0.0110711
2238	0.0109234
2250	0.0112925
2262	0.0113663
2274	0.0117353
2286	0.0104806
2298	0.00701167
2310	0.00442842
2322	0.00590456
2334	0.00464984
2346	0.00546172
2358	0.00435461
2370	0.0073807
2382	0.00937349
2394	0.0118091
2406	0.012252
2418	0.0111449
2430	0.0111449
2442	0.0113663
2454	0.0107758
2466	0.0101854
2478	0.0108496
2490	0.0112925
2502	0.0112187
2514	0.0119567
2526	0.0112925
2538	0.0111449
2550	0.0110711
2562	0.0109234
2574	0.0101854
2586	0.0113663
2598	0.0123258
2610	0.0108496
2622	0.0107758
2634	0.0109972
2646	0.0114401
2658	0.0114401
2670	0.0123996
2682	0.0141709
2694	0.0135067
2706	0.015278
2718	0.0135067
2730	0.0160899
2742	0.01454
2754	0.0161637
2766	0.0134329
2778	0.0169018
2790	0.0151304
2802	0.0182303
2814	0.0193374
2826	0.0240611
2838	0.0264229
2850	0.0371249
2862	0.0662787
2874	0.0871661
2886	0.0783092
2898	0.0935873
2910	0.109825
2922	0.124586
2934	0.148943
2946	0.147983
2958	0.164147
2970	0.178761
2982	0.142005
2994	0.0943253
3006	0.0780878
3018	0.0603741
3030	0.0705595
3042	0.0964657
3054	0.0886422
3066	0.135952
3078	0.178982
3090	0.114917
3102	0.0853947
3114	0.0456127
3126	0.0208874
3138	0.015278
3150	0.0148352
3162	0.0142448
3174	0.0111449
3186	0.0094473
3198	0.00915207
3210	0.00929968
3222	0.00804496
3234	0.00730689
3246	0.0094473
3258	0.0106282
3270	0.0101116
3282	0.0113663
3294	0.0104068
3306	0.00922588
3318	0.00922588
3330	0.00856161
3342	0.00863542
3354	0.00782354
3366	0.00893065
3378	0.0133591
3390	0.0172708
3402	0.0102592
3414	0.00671644
3426	0.00457603
3438	0.00546172
3450	0.00679024
3462	0.00782354
3474	0.010702
3486	0.00966872
3498	0.00782354
3510	0.00893065
3522	0.00671644
3534	0.00546172
3546	0.00664263
3558	0.00619979
3570	0.0062736
3582	0.00937349
3594	0.00885684
3606	0.00693786
3618	0.00538791
3630	0.00723309
3642	0.00745451
3654	0.00834019
3666	0.00679024
3678	0.00671644
3690	0.00494507
3702	0.00649502
3714	0.00745451
3726	0.00782354
3738	0.00760212
3750	0.00560933
3762	0.00428081
3774	0.00428081
3786	0.00450223
3798	0.0062736
3810	0.00819258
3822	0.00575695
3834	0.00583075
3846	0.0052403
3858	0.00509268
3870	0.0135067
3882	0.0112925
3894	0.00649502
3906	0.0073807
3918	0.0126948
3930	0.00767593
3942	0.00649502
3954	0.0063474
3966	0.00981633
