Infrared Spectrum: Naphthalene, 2-ethyl-
Formula: C 12 H 12
CAS: 939-27-5
Origin: Sadtler Research Labs Under US-EPA Contract
1/CM	ABSORBANCE
450	0.0465272
462	0.0874865
474	0.166153
486	0.0652152
498	0.00485118
510	0.00325249
522	0.00220508
534	0.00534732
546	0.00352813
558	0
570	0
582	0.00281148
594	0.00259097
606	0.00402427
618	0.0383133
630	0.016483
642	0.0153804
654	0.0106395
666	0.0028666
678	0.00380376
690	0.00391402
702	0.00507168
714	0.0106946
726	0.0882032
738	0.263342
750	0.18677
762	0.0599782
774	0.0286109
786	0.0358326
798	0.100607
810	0.244819
822	0.154797
834	0.0578282
846	0.125469
858	0.117751
870	0.0535283
882	0.0667037
894	0.0500553
906	0.0138369
918	0.0061191
930	0.0117972
942	0.050772
954	0.0461413
966	0.0129548
978	0.00496143
990	0.00496143
1002	0.0063396
1014	0.0292724
1026	0.0264058
1038	0.012569
1050	0.0231533
1062	0.0298237
1074	0.0180265
1086	0.00628448
1098	0.00413453
1110	0.00937159
1122	0.0310365
1134	0.0320839
1146	0.025193
1158	0.0131754
1170	0.0116318
1182	0.00644986
1194	0.00540245
1206	0.0117421
1218	0.0111357
1230	0.0130651
1242	0.0153253
1254	0.0170894
1266	0.0340134
1278	0.0266263
1290	0.0106946
1302	0.0185778
1314	0.0396914
1326	0.0437157
1338	0.0201765
1350	0.0198457
1362	0.0301545
1374	0.0375966
1386	0.0346749
1398	0.0196803
1410	0.016042
1422	0.0190739
1434	0.0257443
1446	0.040794
1458	0.0570564
1470	0.0575526
1482	0.0350608
1494	0.0359979
1506	0.111412
1518	0.0717202
1530	0.00997799
1542	0.0121831
1554	0.0136164
1566	0.0112459
1578	0.0168689
1590	0.0367146
1602	0.0699562
1614	0.03688
1626	0.0373761
1638	0.058159
1650	0.027343
1662	0.0155458
1674	0.0142228
1686	0.0171445
1698	0.0144984
1710	0.0083793
1722	0.00766265
1734	0.0115215
1746	0.0175855
1758	0.0223816
1770	0.017365
1782	0.0163727
1794	0.0127895
1806	0.00975748
1818	0.013892
1830	0.00810367
1842	0.00810367
1854	0.00672549
1866	0.00341787
1878	0.00385889
1890	0.0128446
1902	0.0228226
1914	0.0200111
1926	0.0139471
1938	0.0218303
1950	0.00893057
1962	0.000771778
1974	0.000330762
1986	0.000165381
1998	0.000330762
2010	0.000496143
2022	0.000826905
2034	0.00176406
2046	0.00137818
2058	0.000992286
2070	0.000385889
2082	0.000220508
2094	0.000330762
2106	0.000496143
2118	0.000441016
2130	0.000385889
2142	0.000716651
2154	0.000606397
2166	0.000441016
2178	0
2190	0.000330762
2202	0.000110254
2214	0.000330762
2226	0.000826905
2238	0.000992286
2250	0.00104741
2262	0.00126792
2274	0.00165381
2286	0.00314224
2298	0.00314224
2310	0.00281148
2322	0.00292173
2334	0.00270122
2346	0.00297686
2358	0.00242559
2370	0.00187432
2382	0.00110254
2394	0.00154356
2406	0.00165381
2418	0.00248072
2430	0.00325249
2442	0.00242559
2454	0.00170894
2466	0.00104741
2478	0.000992286
2490	0.00159868
2502	0.00253584
2514	0.00270122
2526	0.00181919
2538	0.00176406
2550	0.00132305
2562	0.00148843
2574	0.0014333
2586	0.00126792
2598	0.00115767
2610	0.0020397
2622	0.00270122
2634	0.00303199
2646	0.00270122
2658	0.00214995
2670	0.00187432
2682	0.00159868
2694	0.00198457
2706	0.0026461
2718	0.00358326
2730	0.00435503
2742	0.00567808
2754	0.00540245
2766	0.00678062
2778	0.00909596
2790	0.00975748
2802	0.0101985
2814	0.01086
2826	0.0148843
2838	0.0234841
2850	0.0374864
2862	0.0737048
2874	0.129493
2886	0.157388
2898	0.135778
2910	0.135171
2922	0.135282
2934	0.210916
2946	0.274367
2958	0.212625
2970	0.472494
2982	0.443166
2994	0.135723
3006	0.11505
3018	0.157773
3030	0.159923
3042	0.166043
3054	0.3516
3066	0.424698
3078	0.214554
3090	0.104135
3102	0.0481259
3114	0.019956
3126	0.0124036
3138	0.00997799
3150	0.01086
3162	0.0116318
3174	0.0108049
3186	0.00705626
3198	0.00418965
3210	0.0040794
3222	0.00275635
3234	0.0028666
3246	0.00220508
3258	0.00192945
3270	0.000992286
3282	0.000220508
3294	0.00104741
3306	0.000771778
3318	0.000882032
3330	0.00115767
3342	0.000606397
3354	0.000992286
3366	0.000441016
3378	0.000882032
3390	0.00121279
3402	0.00115767
3414	0.00148843
3426	0.00170894
3438	0.00198457
3450	0.00181919
3462	0.00148843
3474	0.000771778
3486	0.000826905
3498	0.000771778
3510	0.00154356
3522	0.000385889
3534	0.00187432
3546	0.000826905
3558	0.00115767
3570	0.00104741
3582	0.00115767
3594	0.00121279
3606	0.000771778
3618	0.000937159
3630	0.00159868
3642	0.0026461
3654	0.00214995
3666	0.00209483
3678	0.00170894
3690	0.00226021
3702	0.00170894
3714	0.00209483
3726	0.00314224
3738	0.00231533
3750	0.00297686
3762	0.00187432
3774	0.00154356
3786	0.00132305
3798	0.00159868
3810	0.00176406
3822	0.00220508
3834	0.00176406
3846	0.00170894
3858	0.000496143
3870	0.00104741
3882	0.00187432
3894	0.00231533
3906	0.00297686
3918	0.000661524
3930	0.00396914
3942	0.00325249
3954	0.000441016
3966	0.00176406
