Infrared Spectrum: Vinyl 2-ethylhexanoate
Formula: C 10 H 18 O 2
CAS: 94-04-2
Origin: Sadtler Research Labs Under US-EPA Contract
1/CM	ABSORBANCE
450	0.00135059
462	0.0027856
474	0.00177265
486	0.00185706
498	0.00396736
510	0.0048959
522	0.00540237
534	0.0149409
546	0.00540237
558	0.00295442
570	0.00734384
582	0.00472707
594	0.00498031
606	0.00506472
618	0.00574002
630	0.00531796
642	0.00413619
654	0.00472707
666	0.00337648
678	0.00683737
690	0.0102139
702	0.0109736
714	0.00962297
726	0.0125774
738	0.0146033
750	0.0146033
762	0.0124086
774	0.0119865
786	0.012915
798	0.0161227
810	0.021103
822	0.0187395
834	0.0154474
846	0.0226224
858	0.0395048
870	0.103574
882	0.0495498
894	0.0242262
906	0.0178953
918	0.0181486
930	0.0270963
942	0.0543613
954	0.0694711
966	0.0497187
978	0.0628025
990	0.0511537
1002	0.0295442
1014	0.025408
1026	0.0284468
1038	0.0312324
1050	0.0342713
1062	0.0521666
1074	0.072932
1086	0.08973
1098	0.0962297
1110	0.151942
1122	0.227406
1134	0.3769
1146	0.799466
1158	0.669472
1170	0.284975
1182	0.151013
1194	0.153292
1206	0.158863
1218	0.13776
1230	0.0953011
1242	0.080529
1254	0.0802758
1266	0.0696399
1278	0.0541081
1290	0.0593416
1302	0.0667699
1314	0.0433034
1326	0.0391672
1338	0.0401801
1350	0.0446539
1362	0.0519978
1374	0.0695555
1386	0.0630558
1398	0.0343557
1410	0.01722
1422	0.0144345
1434	0.0181486
1446	0.0324142
1458	0.0600169
1470	0.0675296
1482	0.0276027
1494	0.0119865
1506	0.00751267
1518	0.00683737
1530	0.00742826
1542	0.00430501
1554	0.00953856
1566	0.0131683
1578	0.00936973
1590	0.00936973
1602	0.0108891
1614	0.0173045
1626	0.0352842
1638	0.104164
1650	0.231795
1662	0.0666011
1674	0.0189083
1686	0.00920091
1698	0.00979179
1710	0.0128306
1722	0.0198368
1734	0.0309792
1746	0.0732696
1758	0.258301
1770	0.529432
1782	0.132442
1794	0.0404333
1806	0.0163759
1818	0.0118177
1830	0.00953856
1842	0.00869444
1854	0.00641531
1866	0.00590884
1878	0.00548678
1890	0.00607766
1902	0.00641531
1914	0.00438942
1926	0.00388295
1938	0.00379854
1950	0.00379854
1962	0.00388295
1974	0.00481148
1986	0.00430501
1998	0.0048959
2010	0.00649972
2022	0.00759708
2034	0.00607766
2046	0.00472707
2058	0.00413619
2070	0.00362972
2082	0.00405178
2094	0.00362972
2106	0.00312324
2118	0.00320766
2130	0.00253236
2142	0.00253236
2154	0.00185706
2166	0.00151942
2178	0.00160383
2190	0.00160383
2202	0.00160383
2214	0.00160383
2226	0.00202589
2238	0.00295442
2250	0.00295442
2262	0.00362972
2274	0.00438942
2286	0.00548678
2298	0.00498031
2310	0.00362972
2322	0.00270118
2334	0.000928532
2346	0.00084412
2358	0.00236354
2370	0.000590884
2382	0.000590884
2394	0.00126618
2406	0.00177265
2418	0.00177265
2430	0.00151942
2442	0.00118177
2454	0.00126618
2466	0.000590884
2478	0.000590884
2490	0.00084412
2502	0.00118177
2514	0.00118177
2526	0.00109736
2538	0.00101294
2550	0.000590884
2562	0.00101294
2574	0.00109736
2586	0.00185706
2598	0.00185706
2610	0.00151942
2622	0.00151942
2634	0.0021103
2646	0.00151942
2658	0.00194148
2670	0.00202589
2682	0.00261677
2694	0.00244795
2706	0.0027856
2718	0.00312324
2730	0.00362972
2742	0.00506472
2754	0.00548678
2766	0.00464266
2778	0.00548678
2790	0.00658414
2802	0.00818796
2814	0.00996062
2826	0.0119021
2838	0.0158695
2850	0.025408
2862	0.0644908
2874	0.122397
2886	0.135059
2898	0.0924311
2910	0.0886326
2922	0.134384
2934	0.225549
2946	0.298481
2958	0.220484
2970	0.322032
2982	0.212549
2994	0.0534328
3006	0.0261677
3018	0.0171356
3030	0.0142656
3042	0.0129994
3054	0.0155318
3066	0.0115644
3078	0.0106359
3090	0.0205121
3102	0.0217783
3114	0.0102139
3126	0.0184018
3138	0.011058
3150	0.00438942
3162	0.00472707
3174	0.00430501
3186	0.00379854
3198	0.00388295
3210	0.00337648
3222	0.00236354
3234	0.00287001
3246	0.00135059
3258	0.001435
3270	0.00151942
3282	0.00151942
3294	0.00202589
3306	0.00168824
3318	0.00194148
3330	0.000928532
3342	0.00151942
3354	0.00151942
3366	0.00160383
3378	0.00202589
3390	0.00194148
3402	0.00109736
3414	0.00160383
3426	0.00236354
3438	0.00160383
3450	0.000675296
3462	0.00236354
3474	0.00244795
3486	0.00177265
3498	0.00227912
3510	0.00548678
3522	0.00523354
3534	0.0021103
3546	0.00194148
3558	0.00168824
3570	0.00109736
3582	0.00177265
3594	0.00185706
3606	0.00177265
3618	0.00219471
3630	0.00160383
3642	0.00227912
3654	0.00219471
3666	0.00253236
3678	0.0021103
3690	0.00151942
3702	0.00244795
3714	0.00185706
3726	0.00202589
3738	0.001435
3750	0.001435
3762	0.00185706
3774	0.00244795
3786	0.00253236
3798	0.0021103
3810	0.00126618
3822	0.00126618
3834	0.00202589
3846	0.0027856
3858	0.00126618
3870	0.00185706
3882	0.00185706
3894	0.00219471
3906	0.0021103
3918	0.00151942
3930	0.00126618
3942	0.00202589
3954	0.00177265
3966	0.00287001
