Infrared Spectrum: Ethyl 4-methylbenzoate
Formula: C 10 H 12 O 2
CAS: 94-08-6
Origin: Sadtler Research Labs Under US-EPA Contract
1/CM	ABSORBANCE
450	0.00496133
462	0.00689746
474	0.00889409
486	0.00955963
498	0.00550586
510	0.00338822
522	0.00344873
534	0.00363024
546	0.00338822
558	0.00193613
570	0.00235966
582	0.00350923
594	0.00405377
606	0.007563
618	0.00490082
630	0.0030252
642	0.00393276
654	0.00350923
666	0.00242016
678	0.00496133
690	0.00949913
702	0.00653443
714	0.00387226
726	0.00332772
738	0.0129479
750	0.0483427
762	0.0509444
774	0.0160336
786	0.00713947
798	0.00635292
810	0.00574788
822	0.00768401
834	0.0154285
846	0.0185142
858	0.0113142
870	0.00726048
882	0.00623191
894	0.00363024
906	0.00284369
918	0.00205714
930	0.00260167
942	0.00260167
954	0.00417478
966	0.00477982
978	0.00514284
990	0.00508234
1002	0.00665544
1014	0.0174252
1026	0.0538486
1038	0.0208134
1050	0.0105882
1062	0.00955963
1074	0.0144605
1086	0.0424133
1098	0.156645
1110	0.333861
1122	0.0999526
1134	0.0341243
1146	0.0173041
1158	0.0180302
1170	0.0378755
1182	0.120463
1194	0.0243831
1206	0.0271663
1218	0.0180302
1230	0.0348503
1242	0.0654048
1254	0.0620771
1266	0.275172
1278	0.601047
1290	0.126151
1302	0.0402352
1314	0.0372705
1326	0.0196033
1338	0.0110722
1350	0.0101042
1362	0.0201478
1374	0.0404167
1386	0.0179697
1398	0.0194823
1410	0.0245646
1422	0.0197243
1434	0.0147025
1446	0.0144605
1458	0.0159126
1470	0.0222655
1482	0.0163361
1494	0.0109512
1506	0.0102857
1518	0.00974114
1530	0.00623191
1542	0.00326722
1554	0.00496133
1566	0.00665544
1578	0.0100437
1590	0.00931762
1602	0.0159731
1614	0.0500368
1626	0.0261982
1638	0.00647393
1650	0.00375125
1662	0.00423528
1674	0.00653443
1686	0.00689746
1698	0.00986215
1710	0.015368
1722	0.0507024
1734	0.215818
1746	0.287455
1758	0.0665544
1770	0.0118588
1782	0.00550586
1794	0.00671594
1806	0.00774451
1818	0.00399326
1830	0.00163361
1842	0.000847056
1854	0.00114958
1866	0.00175462
1878	0.00260167
1890	0.00260167
1902	0.00211764
1914	0.00320671
1926	0.00399326
1938	0.00248066
1950	0.00205714
1962	0.00260167
1974	0.00205714
1986	0.00205714
1998	0.00108907
2010	0.00108907
2022	0.00108907
2034	0.00090756
2046	0.00102857
2058	0.00090756
2070	0.000484032
2082	0.000484032
2094	0.000423528
2106	0.00108907
2118	0.00199663
2130	0.00254117
2142	0.0015731
2154	0.00102857
2166	0.00102857
2178	0.00102857
2190	0.000484032
2202	0.000544536
2214	0.00060504
2226	0.000544536
2238	0.000544536
2250	0.00102857
2262	0.000544536
2274	0.00114958
2286	0.00169411
2298	0.0015731
2310	0.00121008
2322	0.00090756
2334	0.00133109
2346	0.0015126
2358	0.0015126
2370	0.00278318
2382	0.0030252
2394	0.00187562
2406	0.00121008
2418	0.00121008
2430	0.000786552
2442	0.000544536
2454	0.000786552
2466	0.000847056
2478	0.000847056
2490	0.000544536
2502	0.00030252
2514	0.00030252
2526	0.00030252
2538	0.000423528
2550	0.000363024
2562	0.000423528
2574	0.00090756
2586	0.0015126
2598	0.00169411
2610	0.000847056
2622	0.0015126
2634	0.00121008
2646	0.00090756
2658	0.000665544
2670	0.000544536
2682	0.00108907
2694	0.00114958
2706	0.00114958
2718	0.0015731
2730	0.00211764
2742	0.00266218
2754	0.00181512
2766	0.00199663
2778	0.00272268
2790	0.00272268
2802	0.00217814
2814	0.00266218
2826	0.00375125
2838	0.00429578
2850	0.00586889
2862	0.00871258
2874	0.0161546
2886	0.0214789
2898	0.0189983
2910	0.0216604
2922	0.0266218
2934	0.0394486
2946	0.0428368
2958	0.0294049
2970	0.0326117
2982	0.0542721
2994	0.0559662
3006	0.0366049
3018	0.0251092
3030	0.0205714
3042	0.0294049
3054	0.0182117
3066	0.0110722
3078	0.0104672
3090	0.00792602
3102	0.00768401
3114	0.0045983
3126	0.00314621
3138	0.00272268
3150	0.00181512
3162	0.00127058
3174	0.00121008
3186	0.00127058
3198	0.00127058
3210	0.00127058
3222	0.000726048
3234	0.00090756
3246	0.00139159
3258	0.00127058
3270	0.00139159
3282	0.000847056
3294	0.00090756
3306	0.00127058
3318	0.00102857
3330	0.00090756
3342	0.00121008
3354	0.00163361
3366	0.00108907
3378	6.0504e-05
3390	0.00108907
3402	0.00121008
3414	0.00108907
3426	0.000665544
3438	0.00169411
3450	0.00175462
3462	0.00175462
3474	0.00175462
3486	0.00090756
3498	0.000847056
3510	0.00090756
3522	0.0015731
3534	0.00139159
3546	0.00133109
3558	0.00205714
3570	0.00139159
3582	0.00187562
3594	0.00127058
3606	0.00175462
3618	0.000544536
3630	0.00114958
3642	0.00211764
3654	0.00217814
3666	0.00163361
3678	0.00121008
3690	0.00121008
3702	0.0015126
3714	0.00114958
3726	0.000665544
3738	0.000484032
3750	6.0504e-05
3762	0.000726048
3774	0.000484032
3786	0.00114958
3798	6.0504e-05
3810	6.0504e-05
3822	6.0504e-05
3834	6.0504e-05
3846	6.0504e-05
3858	0.0014521
3870	6.0504e-05
3882	6.0504e-05
3894	6.0504e-05
3906	0.000665544
3918	0.00060504
3930	6.0504e-05
3942	6.0504e-05
3954	6.0504e-05
3966	6.0504e-05
