Infrared Spectrum: 1-Butanol, 3-methyl-, benzoate
Formula: C 12 H 16 O 2
CAS: 94-46-2
Origin: Sadtler Research Labs Under US-EPA Contract
1/CM	ABSORBANCE
450	0.00384492
462	0.0109693
474	0.0076333
486	0.000452344
498	0.0100081
510	0.00802911
522	0.00678516
534	0.00463653
546	0.00627627
558	0.000508887
570	0.0107997
582	0.0144185
594	0.00955577
606	0.00944268
618	0.0107432
630	0.0103474
642	0.0113086
654	0.00791602
666	0.0143619
678	0.031551
690	0.0355655
702	0.0906384
714	0.116422
726	0.0342651
738	0.015719
750	0.015832
762	0.0136834
774	0.0130614
786	0.00814219
798	0.0101212
810	0.00882071
822	0.0141923
834	0.0128918
846	0.0107432
858	0.0113651
870	0.00831182
882	0.00768985
894	0.0101777
906	0.0106301
918	0.0140227
930	0.0160582
942	0.0162278
954	0.0235219
966	0.0230695
978	0.0165671
990	0.0130049
1002	0.0149839
1014	0.0173587
1026	0.0585785
1038	0.0244831
1050	0.0214298
1062	0.0450082
1074	0.0563734
1086	0.0521326
1098	0.149782
1110	0.243927
1122	0.108676
1134	0.0477223
1146	0.0396932
1158	0.0353959
1170	0.0615188
1182	0.0785948
1194	0.0242004
1206	0.0194508
1218	0.0251616
1230	0.0445559
1242	0.0991764
1254	0.109467
1266	0.379234
1278	0.447877
1290	0.126034
1302	0.0498144
1314	0.0619711
1326	0.0291762
1338	0.0320033
1350	0.0350567
1362	0.0248224
1374	0.028215
1386	0.0359613
1398	0.0287238
1410	0.0143619
1422	0.0151535
1434	0.0156059
1446	0.0272537
1458	0.0523023
1470	0.0373749
1482	0.0268579
1494	0.0214298
1506	0.0207513
1518	0.0123829
1530	0.0107432
1542	0.0159451
1554	0.0128353
1566	0.0116479
1578	0.0160017
1590	0.0165671
1602	0.0227303
1614	0.0154928
1626	0.0116479
1638	0.0146446
1650	0.0126091
1662	0.0097254
1674	0.0113651
1686	0.0171891
1698	0.0207513
1710	0.0212602
1722	0.0452909
1734	0.195017
1746	0.269936
1758	0.082779
1770	0.0526415
1782	0.0212036
1794	0.015719
1806	0.0119306
1818	0.0113086
1830	0.00825528
1842	0.00621973
1854	0.00531504
1866	0.00537158
1878	0.00627627
1890	0.0064459
1902	0.00667207
1914	0.00808565
1926	0.00735059
1938	0.00571084
1950	0.00650244
1962	0.00746368
1974	0.00638936
1986	0.00497578
1998	0.00424072
2010	0.00480615
2022	0.00424072
2034	0.00491924
2046	0.00441035
2058	0.00503233
2070	0.00463653
2082	0.00457998
2094	0.00457998
2106	0.00429727
2118	0.00435381
2130	0.00452344
2142	0.00390147
2154	0.00412764
2166	0.00384492
2178	0.00305332
2190	0.00339258
2202	0.00378838
2214	0.00390147
2226	0.00339258
2238	0.00327949
2250	0.00254443
2262	0.00310986
2274	0.00316641
2286	0.00310986
2298	0.00361875
2310	0.00452344
2322	0.00344912
2334	0.00401455
2346	0.00395801
2358	0.00452344
2370	0.00497578
2382	0.00390147
2394	0.00277061
2406	0.00333604
2418	0.00277061
2430	0.00209209
2442	0.00305332
2454	0.00271406
2466	0.00220518
2478	0.00214863
2490	0.00175283
2502	0.00101777
2514	0.00203555
2526	0.0015832
2538	0.00231826
2550	0.00254443
2562	0.00248789
2574	0.00141358
2586	0.00305332
2598	0.00226172
2610	0.00277061
2622	0.00277061
2634	0.001979
2646	0.00163975
2658	0.00130049
2670	0.00056543
2682	0.00107432
2694	0.00180938
2706	0.00152666
2718	0.00214863
2730	0.00265752
2742	0.00271406
2754	0.00186592
2766	0.00333604
2778	0.00305332
2790	0.00310986
2802	0.00322295
2814	0.00367529
2826	0.00395801
2838	0.00678516
2850	0.0111955
2862	0.0148143
2874	0.0300243
2886	0.0456867
2898	0.0353959
2910	0.0481746
2922	0.056543
2934	0.0642894
2946	0.0673993
2958	0.095388
2970	0.167707
2982	0.0604445
2994	0.0265752
3006	0.013118
3018	0.00983848
3030	0.00819874
3042	0.0152101
3054	0.0165671
3066	0.0187723
3078	0.0339258
3090	0.0156624
3102	0.0132876
3114	0.00921651
3126	0.00452344
3138	0.00294024
3150	0.00226172
3162	0.00305332
3174	0.00339258
3186	0.00418418
3198	0.00322295
3210	0.00231826
3222	0.00180938
3234	0.00107432
3246	0.000452344
3258	0.00214863
3270	0.00350567
3282	0.0015832
3294	0.00373184
3306	0.00152666
3318	0.00169629
3330	0.00186592
3342	0.00260098
3354	0.00209209
3366	0.00373184
3378	0.00163975
3390	0.00316641
3402	0.00277061
3414	0.00277061
3426	0.00243135
3438	0.00441035
3450	0.0044669
3462	0.00491924
3474	0.00333604
3486	0.00130049
3498	0.00101777
3510	0.00327949
3522	0.00356221
3534	0.00203555
3546	0.0044669
3558	0.00101777
3570	0.00537158
3582	0.0121002
3594	0.0113086
3606	0.00344912
3618	0.00531504
3630	0.00571084
3642	0.00299678
3654	0.00401455
3666	0.00378838
3678	0.0064459
3690	0.00757676
3702	0.00480615
3714	0.00616319
3726	0.00621973
3738	0.00712442
3750	0.00814219
3762	0.0060501
3774	0.00480615
3786	0.0056543
3798	0.00627627
3810	0.00599356
3822	0.00910342
3834	0.00802911
3846	0.00735059
3858	0.00831182
3870	0.00814219
3882	0.0060501
3894	0.00588047
3906	0.00559776
3918	0.00599356
3930	0.00559776
3942	0.00701133
3954	0.0011874
3966	0.00169629
