Infrared Spectrum: Benzoic acid, 2-phenylethyl ester
Formula: C 15 H 14 O 2
CAS: 94-47-3
Origin: Sadtler Research Labs Under US-EPA Contract
1/CM	ABSORBANCE
450	0.0056171
462	0.0198759
474	0.0387148
486	0.0382827
498	0.0241103
510	0.0291225
522	0.0205672
534	0.0147773
546	0.018234
558	0.0335298
570	0.0271349
582	0.0169377
594	0.0227277
606	0.0177155
618	0.0135675
630	0.00423443
642	0.0143452
654	0.0104565
666	0.0184932
678	0.0528008
690	0.0870219
702	0.178624
714	0.180612
726	0.0677509
738	0.0508132
750	0.0483935
762	0.0211722
774	0.0128761
786	0.00717261
798	0.00682694
810	0.00941945
822	0.00777753
834	0.00933304
846	0.01037
858	0.00475293
870	0.00708619
882	0.00777753
894	0.000691336
906	0.00604919
918	0.00414802
930	0.00535785
942	0.00518502
954	0.00432085
966	0.0190117
978	0.0252338
990	0.020308
1002	0.0176291
1014	0.0216907
1026	0.0903922
1038	0.030678
1050	0.0214314
1062	0.0560846
1074	0.0709484
1086	0.0848615
1098	0.226067
1110	0.379889
1122	0.166266
1134	0.0488256
1146	0.0258387
1158	0.0209993
1170	0.0358631
1182	0.0869355
1194	0.0227277
1206	0.0287769
1218	0.0297274
1230	0.0578994
1242	0.139563
1254	0.181821
1266	0.660658
1278	0.501564
1290	0.116144
1302	0.0703434
1314	0.0713804
1326	0.0341347
1338	0.0238511
1350	0.0189253
1362	0.0153822
1374	0.0215178
1386	0.0356038
1398	0.0169377
1410	0.00924662
1422	0.0106293
1434	0.0166785
1446	0.0378506
1458	0.0559118
1470	0.0267893
1482	0.0183204
1494	0.0294682
1506	0.0242832
1518	0.0081232
1530	0.00604919
1542	0.00544427
1554	0.00596277
1566	0.00734544
1578	0.0119255
1590	0.0184932
1602	0.031715
1614	0.0205672
1626	0.00898737
1638	0.0076047
1650	0.0076047
1662	0.00699978
1674	0.00665411
1686	0.0100244
1698	0.0166785
1710	0.0229869
1722	0.0565167
1734	0.235746
1746	0.379371
1758	0.0866763
1770	0.0273078
1782	0.0179747
1794	0.0164192
1806	0.012012
1818	0.0106293
1830	0.00639486
1842	0.00527144
1854	0.00501219
1866	0.00544427
1878	0.00587636
1890	0.00596277
1902	0.00648127
1914	0.0076047
1926	0.00820961
1938	0.00855528
1950	0.00890095
1962	0.00898737
1974	0.00527144
1986	0.00302459
1998	0.00233326
2010	0.00285176
2022	0.00276534
2034	0.00293818
2046	0.00259251
2058	0.00337026
2070	0.0035431
2082	0.00449368
2094	0.00466652
2106	0.0040616
2118	0.00293818
2130	0.00293818
2142	0.00233326
2154	0.00250609
2166	0.00207401
2178	0.00233326
2190	0.00250609
2202	0.00224684
2214	0.00224684
2226	0.00198759
2238	0.00233326
2250	0.00267893
2262	0.00241968
2274	0.00190117
2286	0.00155551
2298	0.000604919
2310	0.000172834
2322	0.00311101
2334	0.00250609
2346	0.00285176
2358	0.00285176
2370	0.0035431
2382	0.00250609
2394	0.00241968
2406	0.00259251
2418	0.00267893
2430	0.00224684
2442	0.00241968
2454	0.00207401
2466	0.00190117
2478	0.00181476
2490	0.00241968
2502	0.00181476
2514	0.00241968
2526	0.00233326
2538	0.00224684
2550	0.00224684
2562	0.00198759
2574	0.00276534
2586	0.00319743
2598	0.00311101
2610	0.00319743
2622	0.00259251
2634	0.00224684
2646	0.00250609
2658	0.00241968
2670	0.00233326
2682	0.00224684
2694	0.00198759
2706	0.00224684
2718	0.00276534
2730	0.00259251
2742	0.00302459
2754	0.00302459
2766	0.00380235
2778	0.00319743
2790	0.00362951
2802	0.00311101
2814	0.00285176
2826	0.00380235
2838	0.00518502
2850	0.0086417
2862	0.0101972
2874	0.0112342
2886	0.012444
2898	0.0154686
2910	0.0212586
2922	0.0282584
2934	0.0287769
2946	0.0310237
2958	0.0440727
2970	0.0508996
2982	0.0291225
2994	0.0211722
3006	0.01616
3018	0.0201352
3030	0.0444183
3042	0.0635165
3054	0.0378506
3066	0.0547884
3078	0.0867627
3090	0.0400111
3102	0.0302459
3114	0.0171106
3126	0.00648127
3138	0.00302459
3150	0.00293818
3162	0.00311101
3174	0.00362951
3186	0.00190117
3198	0.00224684
3210	0.00172834
3222	0.00198759
3234	0.00181476
3246	0.00129625
3258	0.00181476
3270	0.00190117
3282	0.00181476
3294	0.00129625
3306	0.00112342
3318	0.00129625
3330	0.00250609
3342	0.00172834
3354	0.00207401
3366	0.00250609
3378	0.00233326
3390	0.00138267
3402	0.00233326
3414	0.00250609
3426	0.00267893
3438	0.00181476
3450	0.00319743
3462	0.0035431
3474	0.00371593
3486	0.00146909
3498	0.00172834
3510	0.00138267
3522	0.00198759
3534	0.00233326
3546	0.00120984
3558	0.00164192
3570	0.00233326
3582	0.00250609
3594	0.00207401
3606	0.00224684
3618	0.00207401
3630	0.00146909
3642	0.000172834
3654	0.00190117
3666	0.00207401
3678	8.6417e-05
3690	0.00155551
3702	0.00181476
3714	0.00311101
3726	0.00138267
3738	0.00120984
3750	0.00259251
3762	0.00112342
3774	0.00224684
3786	0.00250609
3798	0.00164192
3810	0.00311101
3822	0.00250609
3834	0.000777753
3846	0.00371593
3858	0.00319743
3870	0.00285176
3882	0.00164192
3894	0.00267893
3906	0.00371593
3918	0.00198759
3930	0.00207401
3942	0.00259251
3954	0.00570352
3966	0
