Infrared Spectrum: 1,3-Benzodioxole, 5-(2-propenyl)-
Formula: C 10 H 10 O 2
CAS: 94-59-7
Origin: Sadtler Research Labs Under US-EPA Contract
1/CM	ABSORBANCE
450	0.0497735
462	0.0184346
474	0.0274764
486	0.00579374
498	0.0153622
510	0.0167667
522	0.0107974
534	0.0181713
546	0.0237017
558	0.0214193
570	0.0224727
582	0.0318656
594	0.0372204
606	0.0287054
618	0.0172934
630	0.0150111
642	0.0180835
654	0.0246673
666	0.0301977
678	0.0192247
690	0.0124653
702	0.0143966
714	0.0222971
726	0.0210682
738	0.0146599
750	0.01545
762	0.0326556
774	0.058113
786	0.0553917
798	0.0905931
810	0.144054
822	0.073563
834	0.032919
846	0.0431897
858	0.0610099
870	0.0396784
882	0.0319534
894	0.0510903
906	0.0952456
918	0.167053
930	0.139138
942	0.177236
954	0.16916
966	0.0718073
978	0.0482812
990	0.0840093
1002	0.0676815
1014	0.0512659
1026	0.0863795
1038	0.205415
1050	0.349117
1062	0.221391
1074	0.0952456
1086	0.0757576
1098	0.0842726
1110	0.087784
1122	0.103848
1134	0.0524948
1146	0.0316022
1158	0.0269497
1170	0.0399417
1182	0.140806
1194	0.214105
1206	0.135363
1218	0.112012
1230	0.194266
1242	0.633625
1254	0.624583
1266	0.144668
1278	0.0814636
1290	0.0695249
1302	0.0445943
1314	0.0369571
1326	0.0368693
1338	0.049598
1350	0.0915587
1362	0.0941044
1374	0.0308122
1386	0.0271253
1398	0.0352014
1410	0.0351136
1422	0.0558306
1434	0.158538
1446	0.358159
1458	0.129833
1470	0.0769866
1482	0.29118
1494	0.87784
1506	0.30066
1518	0.127726
1530	0.0452965
1542	0.0363426
1554	0.0192247
1566	0.0169423
1578	0.0205415
1590	0.0204537
1602	0.0274764
1614	0.0383616
1626	0.0368693
1638	0.0585519
1650	0.0474034
1662	0.0151866
1674	0.014221
1686	0.0158889
1698	0.0187858
1710	0.0226483
1722	0.0184346
1734	0.0176446
1746	0.0159767
1758	0.0177324
1770	0.0178202
1782	0.0115875
1794	0.0107974
1806	0.00921732
1818	0.0126409
1830	0.0241406
1842	0.025194
1854	0.0144844
1866	0.0143088
1878	0.0150111
1890	0.0150988
1902	0.00895397
1914	0.00675937
1926	0.0049159
1938	0.00456477
1950	0.00465255
1962	0.0043892
1974	0.00526704
1986	0.00649602
1998	0.00693494
2010	0.00632045
2022	0.00596931
2034	0.00614488
2046	0.00807613
2058	0.00798834
2070	0.0060571
2082	0.00500369
2094	0.0049159
2106	0.00359914
2118	0.00316022
2130	0.00307244
2142	0.00298466
2154	0.00289687
2166	0.00307244
2178	0.00289687
2190	0.00289687
2202	0.00333579
2214	0.00324801
2226	0.00324801
2238	0.0027213
2250	0.00263352
2262	0.00254574
2274	0.00228238
2286	0.00298466
2298	0.00342358
2310	0.00263352
2322	0.00114119
2334	0.00140454
2346	0.00298466
2358	0.000263352
2370	0.00430142
2382	0.00342358
2394	0.00193125
2406	0.00105341
2418	0.000790056
2430	0.000965624
2442	0.000614488
2454	0.00043892
2466	0.000175568
2478	0.000351136
2490	0.000965624
2502	0.00087784
2514	0.000965624
2526	0.00201903
2538	0.00359914
2550	0.00412585
2562	0.00403806
2574	0.0038625
2586	0.00395028
2598	0.00544261
2610	0.00500369
2622	0.00254574
2634	0.0016679
2646	0.0016679
2658	0.00184346
2670	0.00307244
2682	0.00535482
2694	0.00640823
2706	0.00596931
2718	0.00596931
2730	0.00640823
2742	0.00746164
2754	0.00939289
2766	0.0224727
2778	0.0488957
2790	0.0177324
2802	0.0136065
2814	0.0163278
2826	0.023965
2838	0.0431897
2850	0.0634678
2862	0.0885741
2874	0.140015
2886	0.150462
2898	0.125882
2910	0.149145
2922	0.15292
2934	0.124565
2946	0.099986
2958	0.0804979
2970	0.0653113
2982	0.0682082
2994	0.0698761
3006	0.0606587
3018	0.0871695
3030	0.0650479
3042	0.0590786
3054	0.045911
3066	0.0452088
3078	0.0567085
3090	0.0760209
3102	0.0376593
3114	0.0150988
3126	0.00833948
3138	0.00474034
3150	0.00254574
3162	0.00193125
3174	0.00210682
3186	0.00193125
3198	0.00140454
3210	0.00158011
3222	0.00114119
3234	0.00087784
3246	0.00140454
3258	0.00105341
3270	0.00131676
3282	0.000263352
3294	0.00105341
3306	0.00105341
3318	0.00087784
3330	0.000614488
3342	0.00087784
3354	0.000526704
3366	0.000614488
3378	0.000790056
3390	0.00043892
3402	0.00087784
3414	0.00131676
3426	0.000614488
3438	0.00043892
3450	0.000965624
3462	0.000965624
3474	0.00114119
3486	0.00105341
3498	0.00114119
3510	0.00087784
3522	0.00114119
3534	0.00087784
3546	0.000526704
3558	0.00122898
3570	0.00114119
3582	0.00184346
3594	0.00280909
3606	0.00122898
3618	0.00237017
3630	0.00201903
3642	0.00184346
3654	0.0027213
3666	0.000351136
3678	0.00333579
3690	0.00140454
3702	0.00131676
3714	0.00149233
3726	0.00175568
3738	0.0016679
3750	0.000965624
3762	0.00158011
3774	0.00193125
3786	0.0016679
3798	0.000351136
3810	0.000965624
3822	0.00289687
3834	0.00122898
3846	0.00193125
3858	0.00368693
3870	0.00298466
3882	0.00237017
3894	0.00245795
3906	0.00254574
3918	0.00263352
3930	0.00333579
3942	0.0021946
3954	0.00351136
3966	0.00368693
