Infrared Spectrum: Benzenamine, N-ethyl-2-methyl-
Formula: C 9 H 13 N
CAS: 94-68-8
Origin: Sadtler Research Labs Under US-EPA Contract
1/CM	ABSORBANCE
450	0.0426568
462	0.037826
474	0.0365499
486	0.0437506
498	0.0451178
510	0.0455735
522	0.0398312
534	0.0367322
546	0.0365499
558	0.0438417
570	0.0442974
582	0.0455735
594	0.0376437
606	0.0292582
618	0.0325395
630	0.0426568
642	0.0392844
654	0.037826
666	0.0389198
678	0.0375526
690	0.0418365
702	0.0792067
714	0.175823
726	0.213102
738	0.460201
750	0.384914
762	0.109103
774	0.0225133
786	0.0191409
798	0.0258857
810	0.0256123
822	0.0181383
834	0.0170445
846	0.0102996
858	0.00355473
870	0.00200523
882	0.00091147
894	0.000182294
906	0.00610685
918	0.0155861
930	0.0127606
942	0.00473964
954	0.000546882
966	0.00765635
978	0.0327218
990	0.0404693
1002	0.0138543
1014	0.00884126
1026	0.0171356
1038	0.050222
1050	0.132801
1062	0.0988033
1074	0.0249743
1086	0.0293493
1098	0.0494928
1110	0.0617065
1122	0.0405604
1134	0.0490371
1146	0.137997
1158	0.262777
1170	0.166708
1182	0.0536856
1194	0.0506777
1206	0.0438417
1218	0.0414719
1230	0.0572403
1242	0.138543
1254	0.42675
1266	0.465852
1278	0.27098
1290	0.222034
1302	0.32421
1314	0.449446
1326	0.229508
1338	0.0684514
1350	0.063256
1362	0.0733733
1374	0.121955
1386	0.168987
1398	0.0842198
1410	0.0551439
1422	0.0758343
1434	0.164703
1446	0.356567
1458	0.327582
1470	0.29796
1482	0.372335
1494	0.415357
1506	0.75251
1518	0.809841
1530	0.22249
1542	0.0647144
1554	0.053959
1566	0.0578783
1578	0.168713
1590	0.361854
1602	0.485358
1614	0.479524
1626	0.103999
1638	0.0364588
1650	0.0235159
1662	0.0267061
1674	0.0168622
1686	0.00647144
1698	0.00328129
1710	0.00692717
1722	0.00473964
1734	0.00419276
1746	0.0119403
1758	0.0164976
1770	0.0091147
1782	0.0075652
1794	0.00820323
1806	0.00802094
1818	0.00638029
1830	0.00829438
1842	0.0105731
1854	0.00829438
1866	0.0160419
1878	0.0240628
1890	0.0113934
1902	0.0106642
1914	0.0188674
1926	0.0109376
1938	0.00473964
1950	0.0046485
1962	0.00473964
1974	0.00419276
1986	0.00346359
1998	0.00364588
2010	0.00182294
2022	0.00091147
2034	0.00091147
2046	0.000820323
2058	0.00191409
2070	0.00191409
2082	0.00191409
2094	0.00200523
2106	0.00255212
2118	0.00191409
2130	0.00246097
2142	0.00255212
2154	0.0029167
2166	0.00182294
2178	0.00118491
2190	0.00209638
2202	0.00227867
2214	0.00227867
2226	0.00145835
2238	0.00136721
2250	0.00246097
2262	0.00246097
2274	0.00209638
2286	0.00346359
2298	0.00455735
2310	0.00647144
2322	0.00865896
2334	0.00519538
2346	0.00528653
2358	0.00638029
2370	9.1147e-05
2382	9.1147e-05
2394	0.00118491
2406	0.00328129
2418	0.00437506
2430	0.00437506
2442	0.00328129
2454	0.0029167
2466	0.00136721
2478	0.00136721
2490	0.000455735
2502	9.1147e-05
2514	0.000638029
2526	0.00209638
2538	0.00428391
2550	0.00783864
2562	0.0121226
2574	0.0141278
2586	0.0103908
2598	0.00856782
2610	0.0103908
2622	0.00838552
2634	0.00546882
2646	0.0046485
2658	0.00510423
2670	0.00656258
2682	0.00975273
2694	0.0139455
2706	0.014857
2718	0.0140366
2730	0.0212373
2742	0.027891
2754	0.0252477
2766	0.0214195
2778	0.0227868
2790	0.0284379
2802	0.0406516
2814	0.0553262
2826	0.0711858
2838	0.0927876
2850	0.141551
2862	0.241175
2874	0.334327
2886	0.387922
2898	0.334054
2910	0.280642
2922	0.293493
2934	0.334509
2946	0.321931
2958	0.292582
2970	0.444797
2982	0.568848
2994	0.269977
3006	0.113934
3018	0.176096
3030	0.215745
3042	0.175093
3054	0.190497
3066	0.215927
3078	0.220758
3090	0.155041
3102	0.0770192
3114	0.0420188
3126	0.0315369
3138	0.0209638
3150	0.0121226
3162	0.0104819
3174	0.00765635
3186	0.00729176
3198	0.00665373
3210	0.00592455
3222	0.00455735
3234	0.00346359
3246	0.00264326
3258	0.00200523
3270	0.00091147
3282	0.00145835
3294	0.00145835
3306	0.00109376
3318	0.00109376
3330	0.00164065
3342	0.00200523
3354	0.00200523
3366	0.00118491
3378	0.00218753
3390	0.00382817
3402	0.00419276
3414	0.00656258
3426	0.0208727
3438	0.0476699
3450	0.0523184
3462	0.0379172
3474	0.0217841
3486	0.0107553
3498	0.00701832
3510	0.00401047
3522	0.003099
3534	0.00328129
3546	0.00236982
3558	0.003099
3570	0.00300785
3582	0.0029167
3594	0.003099
3606	0.00209638
3618	0.0046485
3630	0.00355473
3642	0.00364588
3654	0.00127606
3666	0.00337244
3678	0.00437506
3690	0.00246097
3702	0.00382817
3714	0.00337244
3726	0.00473964
3738	0.00227867
3750	0.0015495
3762	0.00118491
3774	0.00200523
3786	0.00364588
3798	0.00328129
3810	0.00109376
3822	0.00118491
3834	0.00428391
3846	0.00455735
3858	0.00473964
3870	0.00473964
3882	0.00555997
3894	0.0044662
3906	0.00319015
3918	0.00473964
3930	0.00337244
3942	0.00546882
3954	0.00391932
3966	0.00382817
