Infrared Spectrum: Cyclohexanone, 2-propyl-
Formula: C 9 H 16 O
CAS: 94-65-5
Origin: Sadtler Research Labs Under US-EPA Contract
1/CM	ABSORBANCE
450	0.0113185
462	0.0065396
474	0.00561735
486	0.0116539
498	0.00863562
510	0.0197026
522	0.0120731
534	0.0115701
546	0.0103124
558	0.0108155
570	0.0152591
582	0.0108155
594	0.00989324
606	0.00721033
618	0.00804874
630	0.00637192
642	0.00578503
654	0.00796489
666	0.00687496
678	0.00771337
690	0.00435973
702	0.0114862
714	0.0165167
726	0.0119893
738	0.00989324
750	0.00939019
762	0.00721033
774	0.00628807
786	0.00570119
798	0.0108155
810	0.0191157
822	0.020541
834	0.0139176
846	0.0129954
858	0.0139176
870	0.014253
882	0.0166844
894	0.0143368
906	0.0128277
918	0.0145883
930	0.0115701
942	0.0118216
954	0.0128277
966	0.0108155
978	0.0117377
990	0.0120731
1002	0.0240624
1014	0.0320273
1026	0.0278352
1038	0.0287575
1050	0.0351294
1062	0.0493823
1074	0.046951
1086	0.0423397
1098	0.0417528
1110	0.0641384
1122	0.11612
1134	0.097004
1146	0.0682466
1158	0.0456095
1170	0.0372254
1182	0.0367224
1194	0.0450226
1206	0.0534906
1218	0.0404952
1230	0.0486278
1242	0.044268
1254	0.0377284
1266	0.0304343
1278	0.0249846
1290	0.0273322
1302	0.0358839
1314	0.0531552
1326	0.0417528
1338	0.0449388
1350	0.0509753
1362	0.0512269
1374	0.0486278
1386	0.0468671
1398	0.0309373
1410	0.0241462
1422	0.0368062
1434	0.0573472
1446	0.0887876
1458	0.119306
1470	0.0813258
1482	0.0342071
1494	0.0136661
1506	0.0103124
1518	0.0108155
1530	0.00679112
1542	0.00796489
1554	0.00553351
1566	0.00503046
1578	0.00620423
1590	0.00519814
1602	0.00561735
1614	0.00804874
1626	0.00779721
1638	0.00997708
1650	0.0106478
1662	0.0129115
1674	0.019535
1686	0.0328657
1698	0.0549159
1710	0.154016
1722	0.479067
1734	0.540691
1746	0.179336
1758	0.0704264
1770	0.0667374
1782	0.0656475
1794	0.0470348
1806	0.0315242
1818	0.0174389
1830	0.0104801
1842	0.00754569
1854	0.00620423
1866	0.00586887
1878	0.00561735
1890	0.00561735
1902	0.00536582
1914	0.00452741
1926	0.00461125
1938	0.0046951
1950	0.00494662
1962	0.00452741
1974	0.00519814
1986	0.00494662
1998	0.00410821
2010	0.00385669
2022	0.00410821
2034	0.0032698
2046	0.00176066
2058	0.0014253
2070	0.00251523
2082	0.00486278
2094	0.0051143
2106	0.00519814
2118	0.00536582
2130	0.00578503
2142	0.00553351
2154	0.00595271
2166	0.00662344
2178	0.00637192
2190	0.0065396
2202	0.00645576
2214	0.00679112
2226	0.00620423
2238	0.00620423
2250	0.00595271
2262	0.00561735
2274	0.00578503
2286	0.00410821
2298	0.00234755
2310	0.000167682
2322	0.00201218
2334	0.00285059
2346	0.000335364
2358	0.00176066
2370	8.3841e-05
2382	0.00394053
2394	0.00679112
2406	0.00712649
2418	0.00662344
2430	0.00645576
2442	0.00553351
2454	0.00586887
2466	0.00561735
2478	0.00578503
2490	0.00586887
2502	0.00595271
2514	0.00578503
2526	0.00637192
2538	0.00603655
2550	0.00704264
2562	0.00670728
2574	0.00595271
2586	0.00712649
2598	0.00804874
2610	0.00863562
2622	0.0100609
2634	0.0109832
2646	0.0107316
2658	0.0138338
2670	0.0155944
2682	0.0129954
2694	0.00964172
2706	0.00939019
2718	0.00964172
2730	0.0100609
2742	0.0111509
2754	0.0108155
2766	0.0111509
2778	0.013163
2790	0.0159298
2802	0.0192834
2814	0.0220502
2826	0.0264099
2838	0.0424235
2850	0.0916382
2862	0.217064
2874	0.336957
2886	0.267117
2898	0.172293
2910	0.201805
2922	0.307696
2934	0.616231
2946	0.83623
2958	0.524761
2970	0.474708
2982	0.239785
2994	0.0678274
3006	0.036387
3018	0.0266614
3030	0.0225532
3042	0.0186127
3054	0.0146722
3066	0.0120731
3078	0.00964172
3090	0.00830026
3102	0.00754569
3114	0.00612039
3126	0.00679112
3138	0.00553351
3150	0.00620423
3162	0.00603655
3174	0.00536582
3186	0.00494662
3198	0.0046951
3210	0.0051143
3222	0.00494662
3234	0.00461125
3246	0.0046951
3258	0.00343748
3270	0.00360516
3282	0.00251523
3294	0.00192834
3306	0.003689
3318	0.00276675
3330	0.00360516
3342	0.00377284
3354	0.00452741
3366	0.00528198
3378	0.00452741
3390	0.00553351
3402	0.00444357
3414	0.0065396
3426	0.00939019
3438	0.0124923
3450	0.00964172
3462	0.0051143
3474	0.00402437
3486	0.0032698
3498	0.00285059
3510	0.00217987
3522	0.0018445
3534	0.00176066
3546	0.00125761
3558	0.00486278
3570	0.0121569
3582	0.0167682
3594	0.00628807
3606	0.00444357
3618	0.00150914
3630	0.00410821
3642	0.00167682
3654	0.000419205
3666	0.00100609
3678	0.00234755
3690	0.00150914
3702	0.00108993
3714	0.00176066
3726	0.00108993
3738	0.00251523
3750	0.00150914
3762	0.00201218
3774	0.00176066
3786	0.00201218
3798	0.00134146
3810	0.00226371
3822	0.00352132
3834	0.00100609
3846	0.00083841
3858	0.00100609
3870	0.00217987
3882	0.00201218
3894	0.00201218
3906	0.00352132
3918	0.00217987
3930	0.00461125
3942	0.00108993
3954	0.00754569
3966	0.00108993
