Infrared Spectrum: N-Methyl-2-chlorobenzylamine
Formula: C 8 H 10 Cl N
CAS: 94-64-4
Origin: Sadtler Research Labs Under US-EPA Contract
1/CM	ABSORBANCE
450	0.0845014
462	0.0568464
474	0.0304205
486	0.0116766
498	0.0166954
510	0.0115741
522	0.0162857
534	0.00716982
546	0.018027
558	0.0249919
570	0.0413801
582	0.0547979
594	0.0542858
606	0.0609435
618	0.058895
630	0.0691375
642	0.0737467
654	0.105396
666	0.172895
678	0.221855
690	0.22165
702	0.22165
714	0.221445
726	0.222981
738	0.538044
750	1.02426
762	0.390755
774	0.0964853
786	0.061558
798	0.0646308
810	0.0895203
822	0.106011
834	0.0808141
846	0.0561294
858	0.0570513
870	0.0495742
882	0.0296011
894	0.029089
906	0.0375903
918	0.0419947
930	0.0473208
942	0.0817359
954	0.0978168
966	0.079585
978	0.0598168
990	0.0587925
1002	0.0631968
1014	0.0981241
1026	0.220626
1038	0.392087
1050	0.464912
1062	0.287919
1074	0.0822481
1086	0.0708788
1098	0.154458
1110	0.280033
1122	0.303591
1134	0.253197
1146	0.169925
1158	0.130491
1170	0.104987
1182	0.0864475
1194	0.089213
1206	0.0912616
1218	0.0671915
1230	0.0639138
1242	0.0766146
1254	0.108264
1266	0.111952
1278	0.0917737
1290	0.0541834
1302	0.0554125
1314	0.0554125
1326	0.0584852
1338	0.0972023
1350	0.161833
1362	0.179553
1374	0.104987
1386	0.0837845
1398	0.100992
1410	0.0981241
1422	0.137968
1434	0.270917
1446	0.477612
1458	0.430804
1470	0.43572
1482	0.349478
1494	0.16296
1506	0.0884961
1518	0.058895
1530	0.0480378
1542	0.0578707
1554	0.062992
1566	0.0973047
1578	0.127828
1590	0.112976
1602	0.0997629
1614	0.0589974
1626	0.0482426
1638	0.0611483
1650	0.0809165
1662	0.050496
1674	0.0569489
1686	0.058178
1698	0.0562319
1710	0.087267
1722	0.0722103
1734	0.0302157
1746	0.018744
1758	0.0152615
1770	0.0162857
1782	0.0167979
1794	0.0258114
1806	0.0244798
1818	0.0209973
1830	0.022841
1842	0.0176173
1854	0.0136227
1866	0.016593
1878	0.0174124
1890	0.0149542
1902	0.0197682
1914	0.0300108
1926	0.018744
1938	0.0207925
1950	0.0216119
1962	0.0100377
1974	0.00665769
1986	0.00430189
1998	0.00430189
2010	0.00491645
2022	0.00532615
2034	0.00450674
2046	0.00460917
2058	0.00501887
2070	0.00563343
2082	0.00358491
2094	0.00368734
2106	0.00378976
2118	0.00327763
2130	0.00286793
2142	0.00174124
2154	0.0023558
2166	0.00245822
2178	0.00153639
2190	0.00215095
2202	0.00286793
2214	0.00194609
2226	0.00245822
2238	0.00194609
2250	0.0027655
2262	0.00256065
2274	0.00338006
2286	0.00440432
2298	0.00419947
2310	0.00696497
2322	0.00839893
2334	0.005531
2346	0.00819408
2358	0.00532615
2370	0.0051213
2382	0.00409704
2394	0.00368734
2406	0.00450674
2418	0.00399461
2430	0.00409704
2442	0.00317521
2454	0.00194609
2466	0.000716982
2478	0.000204852
2490	0.000819408
2502	0.00256065
2514	0.00409704
2526	0.00594071
2538	0.00819408
2550	0.0109596
2562	0.0129057
2574	0.0129057
2586	0.0136227
2598	0.0147493
2610	0.0155688
2622	0.0174124
2634	0.0193585
2646	0.0208949
2658	0.0218167
2670	0.0244798
2682	0.0289866
2694	0.0350297
2706	0.0390243
2718	0.0433262
2730	0.0487548
2742	0.0537736
2754	0.0713909
2766	0.12496
2778	0.214378
2790	0.292221
2802	0.361666
2814	0.284847
2826	0.247973
2838	0.244901
2850	0.289149
2862	0.3251
2874	0.273273
2886	0.267742
2898	0.284847
2910	0.275833
2922	0.276345
2934	0.301542
2946	0.369041
2958	0.365968
2970	0.2871
2982	0.318238
2994	0.151898
3006	0.0796874
3018	0.0932077
3030	0.0979193
3042	0.0728249
3054	0.0871645
3066	0.210895
3078	0.29007
3090	0.135919
3102	0.0514179
3114	0.0243774
3126	0.018744
3138	0.0223289
3150	0.0218167
3162	0.0138275
3174	0.0104475
3186	0.00942319
3198	0.00809165
3210	0.0078868
3222	0.00635041
3234	0.00614556
3246	0.00655526
3258	0.00655526
3270	0.00686254
3282	0.00635041
3294	0.00665769
3306	0.00686254
3318	0.00604313
3330	0.00583828
3342	0.00624799
3354	0.00727225
3366	0.00901349
3378	0.0109596
3390	0.0122911
3402	0.00921834
3414	0.00706739
3426	0.00706739
3438	0.00635041
3450	0.0051213
3462	0.00501887
3474	0.00532615
3486	0.00614556
3498	0.00440432
3510	0.00501887
3522	0.00440432
3534	0.00430189
3546	0.0047116
3558	0.00307278
3570	0.00737467
3582	0.00409704
3594	0.00768195
3606	0.00378976
3618	0.00635041
3630	0.0167979
3642	0.0317521
3654	0.0196658
3666	0.00266308
3678	0.0047116
3690	0.00655526
3702	0.00409704
3714	0.00665769
3726	0.00338006
3738	0.00491645
3750	0.0104475
3762	0.0027655
3774	0.00338006
3786	0.00358491
3798	0.00635041
3810	0.000921834
3822	0.00973047
3834	0.00696497
3846	0.00583828
3858	0.00481402
3870	0.00850136
3882	0.00573586
3894	0.00737467
3906	0.0101402
3918	0.00481402
3930	0.00594071
3942	0.00655526
3954	0.00450674
3966	0.00583828
