Infrared Spectrum: Benzenamine, 2-ethoxy-
Formula: C 8 H 11 N O
CAS: 94-70-2
Origin: Sadtler Research Labs Under US-EPA Contract
1/CM	ABSORBANCE
450	0.0236832
462	0.033041
474	0.0323478
486	0.0358714
498	0.0256472
510	0.0239721
522	0.035236
534	0.0274957
546	0.0378354
558	0.0325789
570	0.0391062
582	0.036218
594	0.0367379
606	0.0373733
618	0.0306727
630	0.0419944
642	0.0449982
654	0.0523342
666	0.0382398
678	0.0378932
690	0.0397416
702	0.0377199
714	0.0633093
726	0.181552
738	0.269873
750	0.13124
762	0.060941
774	0.0467311
786	0.0326367
798	0.0172137
810	0.0177335
822	0.0140367
834	0.0109752
846	0.0123037
858	0.0057764
870	0.00537205
882	0.00981988
894	0.0235677
906	0.0430919
918	0.0428609
930	0.0372578
942	0.0177335
954	0.0123037
966	0.00987764
978	0.0123037
990	0.0114373
1002	0.0162894
1014	0.0287665
1026	0.0616342
1038	0.150591
1050	0.184036
1062	0.0879746
1074	0.060941
1086	0.0514677
1098	0.0713385
1110	0.0657932
1122	0.0594392
1134	0.0766528
1146	0.0941553
1158	0.0463845
1170	0.0336186
1182	0.0447671
1194	0.1116
1206	0.344909
1218	0.57764
1230	0.345082
1242	0.0874547
1254	0.0893609
1266	0.224413
1278	0.271086
1290	0.109001
1302	0.0518721
1314	0.0364491
1326	0.0525652
1338	0.0469621
1350	0.0192932
1362	0.0161162
1374	0.0196975
1386	0.0541249
1398	0.0708187
1410	0.0328677
1422	0.0101665
1434	0.0127081
1446	0.0280155
1458	0.0556845
1470	0.059728
1482	0.0922491
1494	0.225222
1506	0.423121
1518	0.261613
1530	0.0661975
1542	0.0247808
1554	0.027669
1566	0.0367379
1578	0.0483485
1590	0.0872236
1602	0.134417
1614	0.218926
1626	0.220023
1638	0.0864727
1650	0.0274957
1662	0.0153075
1674	0.00750932
1686	0.00387019
1698	0.00086646
1710	0.00421677
1722	0.00571864
1734	0.0036969
1746	0.00537205
1758	0.0035236
1770	0.00242609
1782	0.00346584
1794	0.00254162
1806	0.00335031
1818	0.00410124
1830	0.00219503
1842	0.00421677
1854	0.0078559
1866	0.0064118
1878	0.00618075
1890	0.00664286
1902	0.0108596
1914	0.00646957
1926	0.00456336
1938	0.00508323
1950	0.00594969
1962	0.0064118
1974	0.00600746
1986	0.00646957
1998	0.0057764
2010	0.0049677
2022	0.00404348
2034	0.00560311
2046	0.00612298
2058	0.00583416
2070	0.00502547
2082	0.00404348
2094	0.00508323
2106	0.00410124
2118	0.00537205
2130	0.00450559
2142	0.00467888
2154	0.00456336
2166	0.00490994
2178	0.00502547
2190	0.00410124
2202	0.00519876
2214	0.00410124
2226	0.00537205
2238	0.00467888
2250	0.00537205
2262	0.00554534
2274	0.00560311
2286	0.00670062
2298	0.00542982
2310	0.00548758
2322	0.00450559
2334	0.0065851
2346	0.0072205
2358	0.0065851
2370	0.00953106
2382	0.00675839
2394	0.00589193
2406	0.00589193
2418	0.00762485
2430	0.00814472
2442	0.00901118
2454	0.00756708
2466	0.00704721
2478	0.00779814
2490	0.00727826
2502	0.00756708
2514	0.00768261
2526	0.00872236
2538	0.00808696
2550	0.00849131
2562	0.00745156
2574	0.00629628
2586	0.00745156
2598	0.00687392
2610	0.00999317
2622	0.0094733
2634	0.00999317
2646	0.00831802
2658	0.00808696
2670	0.0086646
2682	0.00774038
2694	0.00750932
2706	0.00733603
2718	0.0093
2730	0.00987764
2742	0.0109752
2754	0.0110907
2766	0.0114373
2778	0.0109752
2790	0.0104553
2802	0.0110907
2814	0.0116683
2826	0.0145565
2838	0.0161162
2850	0.0204485
2862	0.0278422
2874	0.0451137
2886	0.070992
2898	0.0742845
2910	0.0789634
2922	0.078328
2934	0.0777503
2946	0.0864149
2958	0.0673528
2970	0.0713385
2982	0.133262
2994	0.143717
3006	0.0568975
3018	0.0395683
3030	0.0648112
3042	0.0849708
3054	0.0672373
3066	0.0761907
3078	0.0750354
3090	0.0534895
3102	0.0299218
3114	0.018369
3126	0.0134012
3138	0.0094733
3150	0.00924224
3162	0.00814472
3174	0.0086646
3186	0.0093
3198	0.00872236
3210	0.00883789
3222	0.0072205
3234	0.00768261
3246	0.00537205
3258	0.00646957
3270	0.00542982
3282	0.00548758
3294	0.00646957
3306	0.00554534
3318	0.00664286
3330	0.005141
3342	0.0072205
3354	0.00548758
3366	0.00704721
3378	0.00918448
3390	0.0157118
3402	0.0384131
3414	0.0453447
3426	0.0242609
3438	0.0103975
3450	0.00987764
3462	0.0106286
3474	0.0167516
3486	0.0341963
3498	0.0574174
3510	0.0497348
3522	0.0229901
3534	0.0118416
3546	0.00716274
3558	0.00774038
3570	0.0065851
3582	0.00618075
3594	0.00589193
3606	0.00537205
3618	0.00566087
3630	0.00427454
3642	0.00618075
3654	0.00508323
3666	0.00548758
3678	0.00485218
3690	0.00439006
3702	0.00525652
3714	0.0043323
3726	0.00554534
3738	0.00340808
3750	0.00346584
3762	0.0043323
3774	0.00537205
3786	0.00502547
3798	0.00490994
3810	0.0049677
3822	0.00306149
3834	0.005141
3846	0.00462112
3858	0.00606522
3870	0.005141
3882	0.00583416
3894	0.00681615
3906	0.00635404
3918	0.0072205
3930	0.00635404
3942	0.00733603
3954	0.00259938
3966	0.00294596
