Infrared Spectrum: Phenol, 2-ethoxy-
Formula: C 8 H 10 O 2
CAS: 94-71-3
Origin: Sadtler Research Labs Under US-EPA Contract
1/CM	ABSORBANCE
450	0.0449703
462	0.0427569
474	0.0353608
486	0.0208386
498	0.0140903
510	0.00993342
522	0.00701818
534	0.00426489
546	0.00199748
558	0.000917762
570	0.00329315
582	0.00831384
594	0.0106352
606	0.00674825
618	0.00340112
630	0.00372503
642	0.00340112
654	0.00377902
666	0.00253734
678	0.00458881
690	0.0057765
702	0.00804391
714	0.0208926
726	0.0968509
738	0.252331
750	0.144359
762	0.0536621
774	0.0468598
786	0.0344431
798	0.0161418
810	0.0158179
822	0.0236459
834	0.0198129
846	0.0141443
858	0.0120929
870	0.0121469
882	0.0134965
894	0.0238618
906	0.0434587
918	0.0495052
930	0.0359547
942	0.0161958
954	0.00842182
966	0.00691021
978	0.00739608
990	0.00950154
1002	0.015602
1014	0.0343891
1026	0.092478
1038	0.173241
1050	0.141443
1062	0.0564694
1074	0.0256434
1086	0.0299622
1098	0.0682383
1110	0.135991
1122	0.108566
1134	0.0468059
1146	0.0330394
1158	0.0470758
1170	0.0627317
1182	0.114342
1194	0.210977
1206	0.233975
1218	0.328937
1230	0.366997
1242	0.171298
1254	0.375797
1266	0.523556
1278	0.144952
1290	0.0524744
1302	0.0383301
1314	0.0274249
1326	0.019435
1338	0.0306101
1350	0.0797913
1362	0.110239
1374	0.0874033
1386	0.0680763
1398	0.0741768
1410	0.0458881
1422	0.015548
1434	0.015386
1446	0.0212705
1458	0.0284506
1470	0.0510708
1482	0.13178
1494	0.377362
1506	0.452241
1518	0.132698
1530	0.0457801
1542	0.0152241
1554	0.0134425
1566	0.0181933
1578	0.0303941
1590	0.0603563
1602	0.0840562
1614	0.0660789
1626	0.0319057
1638	0.00858377
1650	0.00685622
1662	0.00512867
1674	0.00437287
1686	0.00453482
1698	0.00340112
1710	0.00318517
1722	0.00313119
1734	0.00561454
1746	0.00739608
1758	0.00696419
1770	0.00480475
1782	0.00334713
1794	0.00350909
1806	0.00275329
1818	0.0026993
1830	0.00286126
1842	0.00253734
1854	0.00367105
1866	0.00707217
1878	0.00604643
1890	0.00318517
1902	0.00458881
1914	0.00712615
1926	0.0046428
1938	0.00350909
1950	0.00334713
1962	0.00377902
1974	0.00377902
1986	0.00291524
1998	0.00334713
2010	0.00383301
2022	0.00377902
2034	0.00383301
2046	0.00431888
2058	0.00388699
2070	0.00242937
2082	0.00188951
2094	0.00151161
2106	0.00172755
2118	0.00140364
2130	0.00140364
2142	0.00134965
2154	0.000917762
2166	0.000647832
2178	0.000485874
2190	0.000485874
2202	0.000917762
2214	0.000917762
2226	0.00107972
2238	0.00151161
2250	0.00205147
2262	0.00205147
2274	0.00248336
2286	0.00242937
2298	0.00226741
2310	0.00199748
2322	0.00248336
2334	0.00226741
2346	0.00291524
2358	0.00118769
2370	0.00410294
2382	0.00356308
2394	0.00275329
2406	0.00280727
2418	0.00399496
2430	0.00431888
2442	0.0034551
2454	0.00291524
2466	0.00302322
2478	0.00356308
2490	0.00399496
2502	0.00496671
2514	0.00750405
2526	0.00842182
2538	0.00485874
2550	0.00372503
2562	0.00318517
2574	0.0023214
2586	0.00178154
2598	0.00205147
2610	0.00237538
2622	0.00334713
2634	0.00334713
2646	0.00286126
2658	0.00248336
2670	0.00205147
2682	0.00156559
2694	0.00264531
2706	0.00259133
2718	0.00318517
2730	0.00421091
2742	0.00431888
2754	0.00475077
2766	0.00496671
2778	0.00426489
2790	0.00437287
2802	0.00383301
2814	0.00491273
2826	0.00642433
2838	0.00739608
2850	0.0100414
2862	0.0136045
2874	0.0234299
2886	0.0400576
2898	0.0482635
2910	0.0516106
2922	0.0519345
2934	0.0551737
2946	0.0609502
2958	0.0486954
2970	0.0490733
2982	0.0939896
2994	0.117258
3006	0.046266
3018	0.0205687
3030	0.0150621
3042	0.0227821
3054	0.0558215
3066	0.0707217
3078	0.0474537
3090	0.0338492
3102	0.019219
3114	0.0120929
3126	0.00831384
3138	0.00518266
3150	0.00415692
3162	0.00350909
3174	0.00361706
3186	0.00372503
3198	0.00280727
3210	0.00323916
3222	0.00280727
3234	0.00334713
3246	0.00318517
3258	0.0030772
3270	0.00296923
3282	0.00302322
3294	0.00205147
3306	0.00215944
3318	0.00221343
3330	0.00221343
3342	0.00215944
3354	0.00221343
3366	0.00237538
3378	0.00248336
3390	0.00199748
3402	0.00134965
3414	0.0019435
3426	0.00161958
3438	0.00215944
3450	0.00280727
3462	0.00151161
3474	0.00291524
3486	0.00188951
3498	0.00280727
3510	0.0030772
3522	0.00372503
3534	0.00593846
3546	0.0088537
3558	0.0206766
3570	0.096473
3582	0.206874
3594	0.149379
3606	0.0390859
3618	0.011553
3630	0.00566853
3642	0.00556056
3654	0.00745007
3666	0.0046428
3678	0.00496671
3690	0.00404895
3702	0.00399496
3714	0.00383301
3726	0.00264531
3738	0.0034551
3750	0.00426489
3762	0.00431888
3774	0.00356308
3786	0.00242937
3798	0.00129566
3810	0.00140364
3822	0.000647832
3834	5.3986e-05
3846	0.00107972
3858	0.0026993
3870	0.00129566
3882	0.00259133
3894	0.00210545
3906	0.00437287
3918	0.00221343
3930	0.00183552
3942	0.00172755
3954	0.00102573
3966	0.00205147
