Infrared Spectrum: Acetic acid, (4-chloro-2-methylphenoxy)-
Formula: C 9 H 9 Cl O 3
CAS: 94-74-6
Origin: Sadtler Research Labs Under US-EPA Contract
1/CM	ABSORBANCE
450	0.0245991
462	0.00733004
474	0.012548
486	0.0208099
498	0.0298171
510	0.0316807
522	0.020872
534	0.0211205
546	0.0290096
558	0.0539193
570	0.0839849
582	0.081438
594	0.0748534
606	0.0944209
618	0.0929921
630	0.06684
642	0.0892029
654	0.114299
666	0.0942345
678	0.0655977
690	0.0282641
702	0.0154055
714	0.00875878
726	0.00217417
738	0.00385138
750	0.0239779
762	0.0306868
774	0.0301898
786	0.0608145
798	0.099701
810	0.0798229
822	0.0280778
834	0.0160267
846	0.020872
858	0.0339791
870	0.0865939
882	0.128773
894	0.0393213
906	0.00888302
918	0.00310595
930	0.00186357
942	0.000683309
954	0.00242264
966	0.0062119
978	0.0137283
990	0.0289475
1002	0.0383895
1014	0.0395698
1026	0.0594479
1038	0.106286
1050	0.170951
1062	0.235866
1074	0.221765
1086	0.133618
1098	0.147843
1110	0.289475
1122	0.55553
1134	0.417999
1146	0.279722
1158	0.242326
1170	0.273386
1182	0.493411
1194	0.330162
1206	0.138215
1218	0.192879
1230	0.322335
1242	0.31867
1254	0.229033
1266	0.160391
1278	0.146477
1290	0.188655
1302	0.131257
1314	0.098148
1326	0.115728
1338	0.139768
1350	0.118461
1362	0.108025
1374	0.093986
1386	0.0838607
1398	0.116473
1410	0.100881
1422	0.0737353
1434	0.0971541
1446	0.124486
1458	0.119703
1470	0.162876
1482	0.426385
1494	0.5605
1506	0.175176
1518	0.0808168
1530	0.0580813
1542	0.0400046
1554	0.0309353
1566	0.031867
1578	0.0444772
1590	0.0544162
1602	0.0537329
1614	0.0367744
1626	0.0331094
1638	0.030252
1650	0.0247855
1662	0.0213689
1674	0.0255309
1686	0.0306247
1698	0.0372093
1710	0.0404395
1722	0.0483907
1734	0.0684551
1746	0.0968435
1758	0.131009
1770	0.205303
1782	0.402842
1794	0.336064
1806	0.453904
1818	0.319354
1830	0.120138
1842	0.0618705
1854	0.030811
1866	0.0152192
1878	0.00819971
1890	0.00478316
1902	0.00242264
1914	0.00149086
1926	0.000993904
1938	0.00142874
1950	0.000559071
1962	0.000931785
1974	0.00180145
1986	0.00236052
1998	0.00136662
2010	0.00142874
2022	0.00186357
2034	0.00167721
2046	0.000993904
2058	0.00062119
2070	0.00062119
2082	0.000124238
2094	0
2106	0.000124238
2118	0.00062119
2130	0.000807547
2142	0.000372714
2154	0.000683309
2166	0.000931785
2178	0.00124238
2190	0.00111814
2202	0.000993904
2214	0.000559071
2226	0.000993904
2238	0.00198781
2250	0.00248476
2262	0.002609
2274	0.00273324
2286	0.00335443
2298	0.00434833
2310	0.00540435
2322	0.00596342
2334	0.00540435
2346	0.00925573
2358	0.00614978
2370	0.00733004
2382	0.00646038
2394	0.00304383
2406	0.00304383
2418	0.00310595
2430	0.00323019
2442	0.00397562
2454	0.0049074
2466	0.00565283
2478	0.0062119
2490	0.00646038
2502	0.00583919
2514	0.00596342
2526	0.0062119
2538	0.00596342
2550	0.00534223
2562	0.00496952
2574	0.00465893
2586	0.00453469
2598	0.00428621
2610	0.00422409
2622	0.00403774
2634	0.00409985
2646	0.0036029
2658	0.00428621
2670	0.00496952
2682	0.00534223
2694	0.00559071
2706	0.00627402
2718	0.00627402
2730	0.00677097
2742	0.00801335
2754	0.00857242
2766	0.00838607
2778	0.00869666
2790	0.00944209
2802	0.00956633
2814	0.0106223
2826	0.013045
2838	0.0167721
2850	0.0223007
2862	0.031867
2874	0.0394456
2886	0.0360911
2898	0.0385759
2910	0.0489498
2922	0.0723065
2934	0.102062
2946	0.100198
2958	0.0698839
2970	0.0623675
2982	0.0505649
2994	0.0420546
3006	0.0298792
3018	0.025593
3030	0.0293202
3042	0.0336685
3054	0.0298171
3066	0.0298792
3078	0.0286369
3090	0.0262142
3102	0.0241022
3114	0.0193811
3126	0.014598
3138	0.0122996
3150	0.0118026
3162	0.011492
3174	0.0111193
3186	0.0108087
3198	0.010436
3210	0.0102496
3222	0.0106223
3234	0.0102496
3246	0.0103118
3258	0.00950421
3270	0.00993904
3282	0.00975268
3294	0.0098148
3306	0.00962845
3318	0.0098148
3330	0.0102496
3342	0.0102496
3354	0.0108087
3366	0.0118026
3378	0.0126102
3390	0.0127965
3402	0.0135419
3414	0.0111193
3426	0.00819971
3438	0.00739216
3450	0.00807547
3462	0.00869666
3474	0.00819971
3486	0.0104981
3498	0.0142253
3510	0.0282641
3522	0.0550374
3534	0.0582676
3546	0.0368366
3558	0.0416818
3570	0.164802
3582	0.207415
3594	0.0407501
3606	0.0161509
3618	0.0100012
3630	0.0101254
3642	0.00397562
3654	0.00708157
3666	0.002609
3678	0.00677097
3690	0.00503164
3702	0.00385138
3714	0.00484528
3726	0.00602554
3738	0.0072058
3750	0.00577707
3762	0.00347866
3774	0.00223628
3786	0.00217417
3798	0.00403774
3810	0.00186357
3822	0.00496952
3834	0.00434833
3846	0.00329231
3858	0.00540435
3870	0.00528012
3882	0.00528012
3894	0.00528012
3906	0.00627402
3918	0.005218
3930	0.00472104
3942	0.00614978
3954	0.00590131
3966	0.00534223
