Infrared Spectrum: Butanoic acid, 4-(2,4-dichlorophenoxy)-
Formula: C 10 H 10 Cl 2 O 3
CAS: 94-82-6
Origin: Sadtler Research Labs Under US-EPA Contract
1/CM	ABSORBANCE
450	0.00440834
462	0.0025067
474	0.000950818
486	0.00458121
498	0.0116259
510	0.0184545
522	0.0204858
534	0.02269
546	0.0307719
558	0.0450774
570	0.0412309
582	0.0332354
594	0.0376437
606	0.0443859
618	0.0474112
630	0.0508688
642	0.0611981
654	0.0627108
666	0.01638
678	0.00981071
690	0.0130954
702	0.0306423
714	0.0362607
726	0.0518628
738	0.0561415
750	0.0235111
762	0.00950818
774	0.0194918
786	0.0315499
798	0.0509984
810	0.051301
822	0.0320253
834	0.0314634
846	0.0338405
858	0.0268822
870	0.0567033
882	0.0153427
894	0.00198807
906	0.000821161
918	0.00280924
930	0.01007
942	0.0252399
954	0.0227764
966	0.00280924
978	0.00254992
990	0.0133547
1002	0.0345752
1014	0.059599
1026	0.103553
1038	0.130565
1050	0.112542
1062	0.214064
1074	0.141974
1086	0.117945
1098	0.165097
1110	0.181606
1122	0.162158
1134	0.24946
1146	0.20408
1158	0.13346
1170	0.0893769
1182	0.0728672
1194	0.0693233
1206	0.0738181
1218	0.0914514
1230	0.141153
1242	0.205766
1254	0.273533
1266	0.25845
1278	0.229666
1290	0.181822
1302	0.0761519
1314	0.0376005
1326	0.0268822
1338	0.0279627
1350	0.0348345
1362	0.0492264
1374	0.0847092
1386	0.126243
1398	0.0837152
1410	0.0461147
1422	0.0474112
1434	0.0737748
1446	0.0689343
1458	0.111764
1470	0.37164
1482	0.418879
1494	0.191114
1506	0.0600744
1518	0.0159046
1530	0.00505662
1542	0.00246348
1554	0.00401937
1566	0.0158182
1578	0.0275305
1590	0.0257153
1602	0.00544559
1614	0.000259314
1626	0.000821161
1638	0.000994037
1650	0.00242026
1662	0.00319821
1674	0.00816839
1686	0.0157749
1698	0.0309448
1710	0.0582592
1722	0.0807763
1734	0.0932234
1746	0.119501
1758	0.163238
1770	0.264846
1782	0.308195
1794	0.179402
1806	0.0990147
1818	0.0458986
1830	0.0216959
1842	0.0108912
1854	0.00574813
1866	0.00397615
1878	0.0025067
1890	0.00086438
1902	0.000388971
1914	0.000475409
1926	0.000518628
1938	0.00133979
1950	0.0015991
1962	0.00198807
1974	0.00242026
1986	0.00242026
1998	0.00276602
2010	0.00276602
2022	0.00224739
2034	0.00168554
2046	0.00103726
2058	0.000994037
2070	0.000821161
2082	0.00112369
2094	0.000907599
2106	0.00112369
2118	0.00177198
2130	0.00125335
2142	0.000561847
2154	0.000388971
2166	0.000302533
2178	8.6438e-05
2190	0.000605066
2202	0.00043219
2214	0.000691504
2226	0.000605066
2238	0.00043219
2250	8.6438e-05
2262	0.00043219
2274	0.00142623
2286	0.00133979
2298	0.00242026
2310	0.00319821
2322	0.00280924
2334	0.00311177
2346	0.00371683
2358	0.000907599
2370	0.00229061
2382	0.00246348
2394	0.000950818
2406	0.00164232
2418	0.00164232
2430	0.0018152
2442	0.00216095
2454	0.00254992
2466	0.0027228
2478	0.00350074
2490	0.00388971
2502	0.00471087
2514	0.00587778
2526	0.00691504
2538	0.0070447
2550	0.00561847
2562	0.00419224
2574	0.00393293
2586	0.00345752
2598	0.00354396
2610	0.00354396
2622	0.0041058
2634	0.00419224
2646	0.00423546
2658	0.004538
2670	0.004538
2682	0.00466765
2694	0.00484053
2706	0.00484053
2718	0.00509984
2730	0.005921
2742	0.00643963
2754	0.00665573
2766	0.00687182
2778	0.00708792
2790	0.00764976
2802	0.00860058
2814	0.00963784
2826	0.0101132
2838	0.0118852
2850	0.0157749
2862	0.021307
2874	0.0287839
2886	0.0398911
2898	0.0400208
2910	0.0371251
2922	0.043608
2934	0.0574813
2946	0.0710088
2958	0.0676377
2970	0.065909
2982	0.0490536
2994	0.0297779
3006	0.0195782
3018	0.0156885
3030	0.0152131
3042	0.0151699
3054	0.0145648
3066	0.0166825
3078	0.0204426
3090	0.0175901
3102	0.0150402
3114	0.0133115
3126	0.0125335
3138	0.0125767
3150	0.0122742
3162	0.0127496
3174	0.0121013
3186	0.0120581
3198	0.0121445
3210	0.0119717
3222	0.0121013
3234	0.0120581
3246	0.0116259
3258	0.0119284
3270	0.0113666
3282	0.0112369
3294	0.0112369
3306	0.0111073
3318	0.0112802
3330	0.0107183
3342	0.0106319
3354	0.0101997
3366	0.0103293
3378	0.00916243
3390	0.00946496
3402	0.00894633
3414	0.0077362
3426	0.00708792
3438	0.00777942
3450	0.00687182
3462	0.00687182
3474	0.00700148
3486	0.00674216
3498	0.00747689
3510	0.00760654
3522	0.0077362
3534	0.00855736
3546	0.0107615
3558	0.0204858
3570	0.0916675
3582	0.118809
3594	0.0203561
3606	0.00639641
3618	0.00484053
3630	0.00466765
3642	0.00185842
3654	0.00285245
3666	0.000216095
3678	0.00259314
3690	0.00371683
3702	0.00151267
3714	0.00315499
3726	0.00324143
3738	0.00445156
3750	0.0041058
3762	0.00129657
3774	0.00112369
3786	0.00138301
3798	0.00155588
3810	0.00211773
3822	0.00233383
3834	0.00168554
3846	0.00263636
3858	0.00298211
3870	0.00229061
3882	0.0025067
3894	0.00172876
3906	0.00440834
3918	0.0027228
3930	0.00311177
3942	0.00233383
3954	0.00302533
3966	0.00233383
