Infrared Spectrum: 1-Piperidinepropanol, 2-methyl-
Formula: C 9 H 19 N O
CAS: 94-88-2
Origin: Sadtler Research Labs Under US-EPA Contract
1/CM	ABSORBANCE
450	0.0917432
462	0.0930432
474	0.0757717
486	0.0642574
498	0.0568288
510	0.0562716
522	0.0527431
534	0.030643
546	0.0388144
558	0.0287858
570	0.0200572
582	0.0274858
594	0.028043
606	0.0178286
618	0.0148572
630	0.000928575
642	0.0163429
654	0.0111429
666	0.0105858
678	0.00780003
690	0.0133715
702	0.0109572
714	0.0163429
726	0.0263715
738	0.0252572
750	0.0248858
762	0.0230287
774	0.0193144
786	0.0274858
798	0.039743
810	0.0412287
822	0.0414144
834	0.0570145
846	0.0705717
858	0.0527431
870	0.0375144
882	0.0443859
894	0.0585002
906	0.0659288
918	0.0895146
930	0.0963861
942	0.0809717
954	0.080786
966	0.101958
978	0.103629
990	0.122758
1002	0.0973147
1014	0.0954575
1026	0.0962004
1038	0.128329
1050	0.181444
1062	0.236415
1074	0.215429
1086	0.28563
1098	0.277458
1110	0.214687
1122	0.222858
1134	0.298258
1146	0.219329
1158	0.0975004
1170	0.0952718
1182	0.117372
1194	0.0891432
1206	0.062586
1218	0.0763289
1230	0.127029
1242	0.141886
1254	0.145043
1266	0.176244
1278	0.237529
1290	0.200386
1302	0.153215
1314	0.166772
1326	0.239015
1338	0.201686
1350	0.167329
1362	0.165101
1374	0.217658
1386	0.203358
1398	0.168444
1410	0.178658
1422	0.107343
1434	0.0988004
1446	0.182001
1458	0.245701
1470	0.178472
1482	0.0828289
1494	0.0312001
1506	0.0182001
1518	0.0130001
1530	0.00668574
1542	0.00835717
1554	0.00538574
1566	0.00315716
1578	0.00501431
1590	0.00297144
1602	0.00278573
1614	0.0037143
1626	0.00148572
1638	0.00445716
1650	0.00204287
1662	0.00241429
1674	0.00408573
1686	0.00668574
1698	0.00668574
1710	0.00575716
1722	0.00575716
1734	0.0061286
1746	0.00464288
1758	0.00575716
1770	0.00482859
1782	0.00390002
1794	0.00278573
1806	0.00241429
1818	0.00222858
1830	0.00167143
1842	0.00260001
1854	0.00204287
1866	0.00130001
1878	0.00185715
1890	0.00222858
1902	0.00130001
1914	0.00204287
1926	0.00111429
1938	0.000928575
1950	0.00130001
1962	0.00241429
1974	0.00278573
1986	0.00278573
1998	0.00222858
2010	0.00185715
2022	0.00278573
2034	0.00204287
2046	0.00278573
2058	0.00297144
2070	0.00260001
2082	0.00185715
2094	0.00148572
2106	0.00185715
2118	0.00260001
2130	0.00241429
2142	0.00241429
2154	0.00260001
2166	0.00278573
2178	0.00352859
2190	0.00445716
2202	0.00445716
2214	0.00445716
2226	0.00464288
2238	0.0037143
2250	0.00390002
2262	0.00445716
2274	0.00427145
2286	0.00390002
2298	0.00315716
2310	0.00111429
2322	0.00074286
2334	0.00297144
2346	0.00482859
2358	0.000928575
2370	0.0115143
2382	0.00854289
2394	0.00501431
2406	0.00482859
2418	0.00482859
2430	0.00557145
2442	0.00464288
2454	0.00482859
2466	0.00575716
2478	0.00575716
2490	0.00631431
2502	0.00668574
2514	0.0061286
2526	0.00835717
2538	0.0111429
2550	0.0124429
2562	0.0137429
2574	0.0150429
2586	0.0159715
2598	0.0185715
2610	0.0208001
2622	0.0241429
2634	0.0300858
2646	0.0375144
2658	0.0440145
2670	0.0518145
2682	0.0599859
2694	0.0709431
2706	0.0761432
2718	0.0809717
2730	0.0885861
2742	0.1053
2754	0.134272
2766	0.165658
2778	0.196672
2790	0.235301
2802	0.350258
2814	0.462245
2826	0.466145
2838	0.371987
2850	0.341901
2862	0.50013
2874	0.546002
2886	0.449059
2898	0.414144
2910	0.584074
2922	1.066
2934	1.85715
2946	1.34848
2958	0.614531
2970	0.396502
2982	0.38963
2994	0.189615
3006	0.0438287
3018	0.0241429
3030	0.0198715
3042	0.0148572
3054	0.0120715
3066	0.00928575
3078	0.00705717
3090	0.00687146
3102	0.00464288
3114	0.00557145
3126	0.00408573
3138	0.00390002
3150	0.00408573
3162	0.00445716
3174	0.00482859
3186	0.00464288
3198	0.00464288
3210	0.00297144
3222	0.00185715
3234	0.00111429
3246	0.00260001
3258	0.00204287
3270	0.00167143
3282	0.00278573
3294	0.00538574
3306	0.00390002
3318	0.00687146
3330	0.0115143
3342	0.0109572
3354	0.0139286
3366	0.0128143
3378	0.0124429
3390	0.0156001
3402	0.0196858
3414	0.0252572
3426	0.0300858
3438	0.0380716
3450	0.0486573
3462	0.0464288
3474	0.0380716
3486	0.0479145
3498	0.102143
3510	0.152843
3522	0.116629
3534	0.0757717
3546	0.0577574
3558	0.0490288
3570	0.0382573
3582	0.0295287
3594	0.0185715
3606	0.0117
3618	0.00724289
3630	0.0098429
3642	0.0118858
3654	0.0169001
3666	0.0122572
3678	0.00241429
3690	0.00501431
3702	0.000185715
3714	0.000185715
3726	0.000185715
3738	0.00074286
3750	0
3762	0.000185715
3774	0.00130001
3786	0.00074286
3798	0.000185715
3810	0.000185715
3822	0.00130001
3834	0.00074286
3846	0.00111429
3858	0.0037143
3870	0.00074286
3882	0.000185715
3894	0.00222858
3906	0.00130001
3918	0.00334287
3930	0.00167143
3942	0.00185715
3954	0.000185715
3966	0.000185715
