Infrared Spectrum: Propanenitrile, 3-[(2-chlorophenyl)amino]-
Formula: C 9 H 9 Cl N 2
CAS: 94-89-3
Origin: Sadtler Research Labs Under US-EPA Contract
1/CM	ABSORBANCE
450	0
462	0.035329
474	0.0183344
486	0.0310275
498	0.0339187
510	0.0319442
522	0.0258797
534	0.0211551
546	0.0270785
558	0.0327904
570	0.0172061
582	0.0197448
594	0.0215077
606	0.0230591
618	0.0184049
630	0.0260208
642	0.0156548
654	0.0287004
666	0.0411114
678	0.0917426
690	0.0913195
702	0.054016
714	0.0569777
726	0.13236
738	0.545308
750	0.34511
762	0.0869475
774	0.0427333
786	0.0174882
798	0.0132572
810	0.0134687
822	0.0147381
834	0.0229885
846	0.0200973
858	0.0317327
870	0.0305339
882	0.0298287
894	0.024963
906	0.0172767
918	0.0197448
930	0.0256682
942	0.00944928
954	0.0109301
966	0.0129751
978	0.0196742
990	0.0298992
1002	0.0286299
1014	0.0495735
1026	0.139835
1038	0.27417
1050	0.128764
1062	0.0564841
1074	0.05592
1086	0.129751
1098	0.202807
1110	0.142444
1122	0.0776392
1134	0.136168
1146	0.0926593
1158	0.0712222
1170	0.0627601
1182	0.0453424
1194	0.0514774
1206	0.0784149
1218	0.0717158
1230	0.10225
1242	0.17192
1254	0.210987
1266	0.195614
1278	0.179043
1290	0.232988
1302	0.236091
1314	0.36006
1326	0.329103
1338	0.133418
1350	0.066568
1362	0.0980891
1374	0.127072
1386	0.0733377
1398	0.0621255
1410	0.0698118
1422	0.116917
1434	0.213314
1446	0.171356
1458	0.213032
1470	0.263099
1482	0.198717
1494	0.289613
1506	0.565828
1518	0.68063
1530	0.212115
1542	0.0796842
1554	0.0561315
1566	0.0845499
1578	0.153798
1590	0.361329
1602	0.6465
1614	0.170087
1626	0.0549327
1638	0.0393485
1650	0.0363868
1662	0.0504197
1674	0.0521121
1686	0.0301108
1698	0.0212961
1710	0.0239758
1722	0.0287709
1734	0.0365278
1746	0.0411114
1758	0.0364573
1770	0.024681
1782	0.0169241
1794	0.0142444
1806	0.0099429
1818	0.00796842
1830	0.00684015
1842	0.0099429
1854	0.0101544
1866	0.00796842
1878	0.0150906
1890	0.0148791
1902	0.00980186
1914	0.0133982
1926	0.0137508
1938	0.0066286
1950	0.00423102
1962	0.00394895
1974	0.00338482
1986	0.00394895
1998	0.00359637
2010	0.00408999
2022	0.00352585
2034	0.00317327
2046	0.0028912
2058	0.0028912
2070	0.00345533
2082	0.00437205
2094	0.00472464
2106	0.00401947
2118	0.00430154
2130	0.00458361
2142	0.00430154
2154	0.00401947
2166	0.00387843
2178	0.00423102
2190	0.00521826
2202	0.00592343
2214	0.00557084
2226	0.00719273
2238	0.0172061
2250	0.041605
2262	0.0174882
2274	0.00726325
2286	0.00726325
2298	0.00973135
2310	0.0119879
2322	0.0112827
2334	0.00973135
2346	0.0128341
2358	0.00944928
2370	0.00973135
2382	0.00754532
2394	0.00493619
2406	0.00493619
2418	0.00486567
2430	0.00408999
2442	0.0037374
2454	0.00387843
2466	0.00423102
2478	0.00423102
2490	0.00458361
2502	0.00571188
2514	0.00655808
2526	0.00740429
2538	0.00782739
2550	0.00860307
2562	0.0100839
2574	0.0099429
2586	0.00860307
2598	0.00973135
2610	0.010366
2622	0.00902618
2634	0.00775687
2646	0.00691067
2658	0.00606446
2670	0.00564136
2682	0.00585291
2694	0.00648756
2706	0.0074748
2718	0.00895566
2730	0.00860307
2742	0.00846204
2754	0.00803894
2766	0.00775687
2778	0.00796842
2790	0.00860307
2802	0.0107891
2814	0.0135393
2826	0.0182639
2838	0.024822
2850	0.037233
2862	0.0578945
2874	0.0705875
2886	0.0758058
2898	0.0738313
2910	0.0660744
2922	0.0685425
2934	0.084973
2946	0.0971019
2958	0.0925183
2970	0.089204
2982	0.0673437
2994	0.0350469
3006	0.0247515
3018	0.0275016
3030	0.039419
3042	0.0432974
3054	0.0412524
3066	0.0679079
3078	0.0942107
3090	0.0861718
3102	0.0346944
3114	0.0178408
3126	0.0110007
3138	0.00825049
3150	0.00803894
3162	0.0074748
3174	0.00719273
3186	0.00832101
3198	0.00860307
3210	0.00712222
3222	0.00754532
3234	0.00796842
3246	0.00768635
3258	0.00825049
3270	0.00796842
3282	0.00825049
3294	0.00944928
3306	0.00959031
3318	0.0112122
3330	0.0136098
3342	0.0161484
3354	0.022777
3366	0.0324378
3378	0.0454835
3390	0.0676258
3402	0.0914605
3414	0.0977366
3426	0.0957621
3438	0.0806714
3450	0.0614908
3462	0.0384318
3474	0.0227065
3486	0.0156548
3498	0.0131162
3510	0.0114238
3522	0.0110007
3534	0.0107891
3546	0.010366
3558	0.0099429
3570	0.00987238
3582	0.0115648
3594	0.0070517
3606	0.0099429
3618	0.00839152
3630	0.00698118
3642	0.00860307
3654	0.00359637
3666	0.0106481
3678	0.00719273
3690	0.00324378
3702	0.00853256
3714	0.00655808
3726	0.0078979
3738	0.00853256
3750	0.00542981
3762	0.00966083
3774	0.00895566
3786	0.00874411
3798	0.0070517
3810	0.0136803
3822	0.00641705
3834	0.00937876
3846	0.0107186
3858	0.00676963
3870	0.00867359
3882	0.0102955
3894	0.0105775
3906	0.00669912
3918	0.0119174
3930	0.00909669
3942	0.0110712
3954	0.00846204
3966	0.0112827
