Infrared Spectrum: Benzene, 2,4-dichloro-1-(chloromethyl)-
Formula: C 7 H 5 Cl 3
CAS: 94-99-5
Origin: Sadtler Research Labs Under US-EPA Contract
1/CM	ABSORBANCE
450	0.0492406
462	0.0379742
474	0.0191586
486	0.014755
498	0.00852131
510	0.00846412
522	0.0107517
534	0.0146406
546	0.0283662
558	0.0374594
570	0.0125246
582	0.00749189
594	0.0091504
606	0.00663404
618	0.00834974
630	0.00960792
642	0.037631
654	0.0716591
666	0.0667407
678	0.163907
690	0.0821248
702	0.0411768
714	0.0640528
726	0.134625
738	0.217265
750	0.187869
762	0.0849843
774	0.0906461
786	0.0712016
798	0.0551312
810	0.140459
822	0.159903
834	0.191529
846	0.5719
858	0.264161
870	0.214119
882	0.0609073
894	0.0302535
906	0.0492406
918	0.0239626
930	0.00446082
942	0.00091504
954	0.00154413
966	0.0017157
978	0.00217322
990	0.00051471
1002	0.0005719
1014	0.00148694
1026	0.00760627
1038	0.050556
1050	0.19193
1062	0.118955
1074	0.0275656
1086	0.0619368
1098	0.250835
1110	0.197877
1122	0.0844696
1134	0.0809239
1146	0.0984812
1158	0.0387176
1170	0.0152697
1182	0.0222469
1194	0.0408908
1206	0.0473533
1218	0.0413484
1230	0.0311685
1242	0.0329414
1254	0.0550168
1266	0.120957
1278	0.16099
1290	0.0705153
1302	0.0430641
1314	0.0154985
1326	0.0109805
1338	0.00840693
1350	0.0145263
1362	0.0335705
1374	0.101512
1386	0.172771
1398	0.0765202
1410	0.0340852
1422	0.0573616
1434	0.0583338
1446	0.0962508
1458	0.147035
1470	0.457291
1482	0.379742
1494	0.092419
1506	0.0716591
1518	0.0358009
1530	0.0196162
1542	0.0359725
1554	0.104944
1566	0.159103
1578	0.166823
1590	0.364357
1602	0.213376
1614	0.0351147
1626	0.0148122
1638	0.0132681
1650	0.0091504
1662	0.00468958
1674	0.00331702
1686	0.00245917
1698	0.00406049
1710	0.0100082
1722	0.0142975
1734	0.022876
1746	0.0144119
1758	0.015041
1770	0.0157844
1782	0.00497553
1794	0.00205884
1806	0.00211603
1818	0.00274512
1830	0.00125818
1842	0.00068628
1854	0.00045752
1866	0.00194446
1878	0.00611933
1890	0.0130393
1902	0.00834974
1914	0.00371735
1926	0.0022876
1938	0.00154413
1950	0.00062909
1962	0.00062909
1974	0.00068628
1986	0.00131537
1998	0.00131537
2010	0.00102942
2022	0.00040033
2034	0.00022876
2046	0.00085785
2058	0.00148694
2070	0.00102942
2082	0.00011438
2094	0.00011438
2106	0.0005719
2118	0.00097223
2130	0.00097223
2142	0.00102942
2154	0.00080066
2166	0.00045752
2178	0.0005719
2190	0.00097223
2202	0.00034314
2214	0.0005719
2226	0.00040033
2238	0.00102942
2250	0.0011438
2262	0.00108661
2274	0.00177289
2286	0.00223041
2298	0.00434644
2310	0.00600495
2322	0.00537586
2334	0.00480396
2346	0.00691999
2358	0.00537586
2370	0.00406049
2382	0.00394611
2394	0.0022876
2406	0.00280231
2418	0.00223041
2430	0.00205884
2442	0.00183008
2454	0.00188727
2466	0.00188727
2478	0.00188727
2490	0.00217322
2502	0.00257355
2514	0.0034314
2526	0.00245917
2538	0.00303107
2550	0.0022876
2562	0.00108661
2574	0.00154413
2586	0.00223041
2598	0.00263074
2610	0.00257355
2622	0.00205884
2634	0.00303107
2646	0.00331702
2658	0.00320264
2670	0.00411768
2682	0.0040033
2694	0.00440363
2706	0.00549024
2718	0.00600495
2730	0.0051471
2742	0.00354578
2754	0.00251636
2766	0.00223041
2778	0.00325983
2790	0.0022876
2802	0.00337421
2814	0.00388892
2826	0.00383173
2838	0.00531867
2850	0.00674842
2862	0.00846412
2874	0.0107517
2886	0.0132109
2898	0.00869288
2910	0.00737751
2922	0.00932197
2934	0.0140115
2946	0.0166423
2958	0.0208743
2970	0.0403761
2982	0.059306
2994	0.0284806
3006	0.0131537
3018	0.0138972
3030	0.0184152
3042	0.0160132
3054	0.0146978
3066	0.0239626
3078	0.0253352
3090	0.0156129
3102	0.00657685
3114	0.00440363
3126	0.00360297
3138	0.00211603
3150	0.00160132
3162	0.00154413
3174	0.00183008
3186	0.00148694
3198	0.00131537
3210	0.00102942
3222	0.00148694
3234	0.00137256
3246	0.00074347
3258	0.00091504
3270	0.00062909
3282	0.00102942
3294	0.00102942
3306	0.00205884
3318	0.00102942
3330	0.00102942
3342	0.00131537
3354	0.00131537
3366	0.00074347
3378	0.00102942
3390	0.00234479
3402	0.00108661
3414	0.00102942
3426	0.00211603
3438	0.00068628
3450	0.00085785
3462	0.00068628
3474	0.00102942
3486	0.0005719
3498	0.00102942
3510	0.00080066
3522	0.00074347
3534	0.00108661
3546	0.00223041
3558	0.00068628
3570	0.0022876
3582	0.00131537
3594	0.00177289
3606	0.00131537
3618	0.00045752
3630	0.00308826
3642	0.00331702
3654	0.00263074
3666	0.00348859
3678	0.00291669
3690	0.00348859
3702	0.00308826
3714	0.00308826
3726	0.0022876
3738	0.00463239
3750	0.00377454
3762	0.00354578
3774	0.00325983
3786	0.00308826
3798	0.00274512
3810	0.00263074
3822	0.00274512
3834	0.00085785
3846	0.00314545
3858	0.00308826
3870	0.00520429
3882	0.0034314
3894	0.00377454
3906	0.00406049
3918	0.00589057
3930	0.00366016
3942	0.00360297
3954	0.00377454
3966	0.00554743
