Infrared Spectrum: Butyraldehyde, phenylhydrazone
Formula: C 10 H 14 N 2
CAS: 940-54-5
Origin: Sadtler Research Labs Under US-EPA Contract
1/CM	ABSORBANCE
450	0.000958188
462	0.0104716
474	0.0206695
486	0.0415443
498	0.0484569
510	0.0497573
522	0.0284719
534	0.0166998
546	0.0234072
558	0.0106085
570	0.0229281
582	0.00992409
594	0.0211486
606	0.0182056
618	0.0275821
630	0.0282665
642	0.0231334
654	0.0386013
666	0.0465406
678	0.0935602
690	0.152215
702	0.102526
714	0.0571491
726	0.0683736
738	0.170421
750	0.218604
762	0.105606
774	0.0483201
786	0.0357267
798	0.0210801
810	0.0145781
822	0.00834992
834	0.0120458
846	0.0060229
858	0.0136884
870	0.020601
882	0.0305936
894	0.0281297
906	0.0275821
918	0.0172474
930	0.0158101
942	0.00869213
954	0.0135515
966	0.0178634
978	0.0119089
990	0.0106085
1002	0.0219699
1014	0.031278
1026	0.0439398
1038	0.0811722
1050	0.135515
1062	0.161318
1074	0.127576
1086	0.155363
1098	0.176238
1110	0.190406
1122	0.155774
1134	0.117789
1146	0.111766
1158	0.0999253
1170	0.0640617
1182	0.0414074
1194	0.0363427
1206	0.04305
1218	0.068442
1230	0.106496
1242	0.23195
1254	0.45904
1266	0.137295
1278	0.115325
1290	0.103827
1302	0.110944
1314	0.0772026
1326	0.0775448
1338	0.0764497
1350	0.060229
1362	0.0633088
1374	0.0621453
1386	0.046609
1398	0.0389435
1410	0.0416127
1422	0.0544798
1434	0.0835677
1446	0.0912332
1458	0.0911647
1470	0.102937
1482	0.107796
1494	0.326674
1506	0.655332
1518	0.171037
1530	0.0634457
1542	0.0357952
1554	0.0368218
1566	0.0551643
1578	0.0787767
1590	0.216824
1602	0.68442
1614	0.336598
1626	0.11423
1638	0.0654306
1650	0.0357952
1662	0.0297723
1674	0.0232703
1686	0.014715
1698	0.0149888
1710	0.0110876
1722	0.00698108
1734	0.00355898
1746	0.00547536
1758	0.00882902
1770	0.0146466
1782	0.00985565
1794	0.00971876
1806	0.00629666
1818	0.00725485
1830	0.0110192
1842	0.0129355
1854	0.0104032
1866	0.00698108
1878	0.00677576
1890	0.00670732
1902	0.00958188
1914	0.0125249
1926	0.0149204
1938	0.01362
1950	0.00746018
1962	0.00506471
1974	0.00410652
1986	0.00349054
1998	0.00362743
2010	0.00301145
2022	0.00355898
2034	0.00280612
2046	0.00335366
2058	0.00280612
2070	0.00232703
2082	0.0026008
2094	0.00287456
2106	0.00362743
2118	0.00383275
2130	0.00410652
2142	0.00410652
2154	0.0042434
2166	0.00485938
2178	0.00458561
2190	0.00403808
2202	0.00273768
2214	0.00280612
2226	0.00246391
2238	0.00246391
2250	0.00219014
2262	0.00205326
2274	0.00225859
2286	0.00307989
2298	0.00396964
2310	0.00588601
2322	0.00752862
2334	0.00752862
2346	0.0151941
2358	0.00828148
2370	0.00999253
2382	0.00568069
2394	0.00383275
2406	0.00403808
2418	0.00396964
2430	0.00458561
2442	0.00485938
2454	0.00465406
2466	0.00479094
2478	0.0042434
2490	0.00396964
2502	0.00417496
2514	0.00451717
2526	0.00622822
2538	0.00800771
2550	0.0101294
2562	0.00780239
2574	0.00663887
2586	0.00663887
2598	0.00622822
2610	0.00622822
2622	0.00663887
2634	0.00711797
2646	0.00718641
2658	0.00821304
2670	0.00917123
2682	0.00951344
2694	0.00965032
2706	0.00999253
2718	0.0107454
2730	0.0122511
2742	0.0141675
2754	0.0153995
2766	0.0149204
2778	0.0161523
2790	0.0192322
2802	0.0223121
2814	0.0264186
2826	0.0343579
2838	0.0553696
2850	0.0935602
2862	0.120732
2874	0.151188
2886	0.173637
2898	0.133325
2910	0.137705
2922	0.150093
2934	0.197592
2946	0.258095
2958	0.222026
2970	0.294301
2982	0.223874
2994	0.0886324
3006	0.0599552
3018	0.0781608
3030	0.105811
3042	0.090891
3054	0.100199
3066	0.136405
3078	0.0874004
3090	0.0777501
3102	0.0541376
3114	0.0338788
3126	0.0171789
3138	0.0119774
3150	0.00965032
3162	0.0104716
3174	0.0103347
3186	0.0113614
3198	0.0107454
3210	0.0109507
3222	0.0103347
3234	0.0106085
3246	0.0108823
3258	0.011156
3270	0.0113614
3282	0.011156
3294	0.0105401
3306	0.0103347
3318	0.0110876
3330	0.01362
3342	0.0157417
3354	0.0155363
3366	0.0137568
3378	0.0150572
3390	0.0114983
3402	0.0114983
3414	0.011156
3426	0.0101294
3438	0.0101979
3450	0.00930811
3462	0.00958188
3474	0.00992409
3486	0.0089659
3498	0.00978721
3510	0.0112245
3522	0.0109507
3534	0.00965032
3546	0.00965032
3558	0.00848681
3570	0.011156
3582	0.011156
3594	0.009445
3606	0.0122511
3618	0.00923967
3630	0.00869213
3642	0.0108138
3654	0.00581757
3666	0.0149888
3678	0.0055438
3690	0.00670732
3702	0.0152626
3714	0.0108823
3726	0.0134831
3738	0.00807616
3750	0.0089659
3762	0.0137568
3774	0.0129355
3786	0.0145097
3798	0.0142359
3810	0.0183425
3822	0.00663887
3834	0.012388
3846	0.0160839
3858	0.00533848
3870	0.0117036
3882	0.0156732
3894	0.0119089
3906	0.0127302
3918	0.0132093
3930	0.012388
3942	0.014715
3954	0.0127302
3966	0.0145781
