Infrared Spectrum: Ethanone, 1-(1-Naphthalenyl)-
Formula: C 12 H 10 O
CAS: 941-98-0
Origin: Sadtler Research Labs Under US-EPA Contract
1/CM	ABSORBANCE
450	0.0201999
462	0.00840855
474	0.00778033
486	0.00202965
498	0.00526743
510	0.0108731
522	0.00333443
534	0.0009665
546	0.0152707
558	0.0240175
570	0.0256122
582	0.0509829
594	0.0612761
606	0.0180252
618	0.00980998
630	0.0069588
642	0.00894013
654	0.0176869
666	0.0256122
678	0.0128061
690	0.0092784
702	0.00449423
714	0.00652388
726	0.0102932
738	0.0439758
750	0.0424777
762	0.098873
774	0.228046
786	0.12666
798	0.152369
810	0.0734057
822	0.0400131
834	0.0158023
846	0.0241625
858	0.0389983
870	0.0158506
882	0.0086985
894	0.0112597
906	0.0131927
918	0.0184118
930	0.0425743
942	0.0769817
954	0.0357605
966	0.0256122
978	0.0181219
990	0.0147875
1002	0.013821
1014	0.0224711
1026	0.025419
1038	0.0121779
1050	0.011453
1062	0.0176386
1074	0.0232443
1086	0.0122262
1098	0.0105832
1110	0.0187984
1122	0.0705545
1134	0.0954419
1146	0.0288017
1158	0.0244041
1170	0.0305414
1182	0.0943787
1194	0.139998
1206	0.0744688
1218	0.0921558
1230	0.151596
1242	0.242205
1254	0.101386
1266	0.137775
1278	0.201225
1290	0.0706028
1302	0.0186535
1314	0.0167688
1326	0.0217463
1338	0.0370169
1350	0.0906577
1362	0.151451
1374	0.0908993
1386	0.0399164
1398	0.0263371
1410	0.0217463
1422	0.0324261
1434	0.0429126
1446	0.0395299
1458	0.0373069
1470	0.0432025
1482	0.0191367
1494	0.0324744
1506	0.0694914
1518	0.0440724
1530	0.0192817
1542	0.0128544
1554	0.0138693
1566	0.0201032
1578	0.0293816
1590	0.0341175
1602	0.0303481
1614	0.0182185
1626	0.0285601
1638	0.0264821
1650	0.0235826
1662	0.0410279
1674	0.063644
1686	0.151354
1698	0.429319
1710	0.392206
1722	0.136808
1734	0.0626775
1746	0.0415595
1758	0.0266754
1770	0.0173487
1782	0.0129511
1794	0.0122262
1806	0.0159472
1818	0.0136276
1830	0.0106798
1842	0.0085052
1854	0.0075387
1866	0.0105832
1878	0.00961667
1890	0.00744205
1902	0.0092784
1914	0.013676
1926	0.0172037
1938	0.0147875
1950	0.0132411
1962	0.00778033
1974	0.003866
1986	0.00381767
1998	0.00478417
2010	0.00439757
2022	0.00275453
2034	0.00164305
2046	0.0011598
2058	0.00125645
2070	0.00048325
2082	0.0013531
2094	0.00434925
2106	0.00449423
2118	0.0044459
2130	0.0048325
2142	0.00459088
2154	0.00459088
2166	0.00468753
2178	0.005799
2190	0.0050258
2202	0.00492915
2214	0.00550905
2226	0.0052191
2238	0.00497748
2250	0.00536408
2262	0.0054124
2274	0.0054124
2286	0.00594398
2298	0.0046392
2310	0.00304448
2322	0.00381767
2334	0.0040593
2346	0.0032861
2358	0.00575068
2370	0.00028995
2382	0.00125645
2394	0.00468753
2406	0.00575068
2418	0.00584733
2430	0.00454255
2442	0.00439757
2454	0.0042526
2466	0.00376935
2478	0.00372103
2490	0.00401097
2502	0.00401097
2514	0.00352773
2526	0.00333443
2538	0.00401097
2550	0.00410763
2562	0.00318945
2574	0.00391433
2586	0.00343108
2598	0.00410763
2610	0.00473585
2622	0.00724875
2634	0.00787697
2646	0.00874682
2658	0.00720043
2670	0.00546073
2682	0.00314113
2694	0.0028995
2706	0.00236793
2718	0.00256123
2730	0.00294783
2742	0.00207798
2754	0.0009665
2766	0.00101483
2778	0.0027062
2790	0.00265788
2802	0.0025129
2814	0.00323778
2826	0.00299615
2838	0.00343108
2850	0.0052191
2862	0.0048325
2874	0.00410763
2886	0.00647555
2898	0.00700713
2910	0.00821525
2922	0.0113081
2934	0.0164788
2946	0.0171554
2958	0.0164788
2970	0.01962
2982	0.0209247
2994	0.0218429
3006	0.0346007
3018	0.0422844
3030	0.0383217
3042	0.0593431
3054	0.121006
3066	0.164015
3078	0.102111
3090	0.0681382
3102	0.0447973
3114	0.0158989
3126	0.00816693
3138	0.00681382
3150	0.005799
3162	0.00647555
3174	0.00430093
3186	0.00439757
3198	0.0042526
3210	0.00473585
3222	0.00352773
3234	0.00401097
3246	0.003866
3258	0.0030928
3270	0.00381767
3282	0.0034794
3294	0.0036727
3306	0.00430093
3318	0.00454255
3330	0.00401097
3342	0.00512245
3354	0.00879515
3366	0.0088918
3378	0.0102449
3390	0.0119846
3402	0.00836023
3414	0.00681382
3426	0.00652388
3438	0.0036727
3450	0.00449423
3462	0.00526743
3474	0.00454255
3486	0.00584733
3498	0.00575068
3510	0.00333443
3522	0.00555738
3534	0.00608895
3546	0.00275453
3558	0.00420428
3570	0.00526743
3582	0.00608895
3594	0.00681382
3606	0.0052191
3618	0.0025129
3630	0.00343108
3642	0.0028995
3654	0.0030928
3666	0.00130477
3678	0.00265788
3690	0.00488083
3702	0.0050258
3714	0.00169138
3726	0.001933
3738	0.00256123
3750	0.00323778
3762	0.00280285
3774	0.00028995
3786	0.00241625
3798	0.00280285
3810	0.00260955
3822	0.000338275
3834	0.0001933
3846	0.00241625
3858	0
3870	0.00028995
3882	0.000724875
3894	0.0011598
3906	0.0036727
3918	0.00198132
3930	0.0017397
3942	0.00338275
3954	0.00338275
3966	0.0013531
