Infrared Spectrum: Naphthalene, sec-hexadecyl-
Formula: C 26 H 40
CAS: 94247-63-9
Origin: Sadtler Research Labs Under US-EPA Contract
1/CM	ABSORBANCE
450	0.011537
462	0.0187569
474	0.0929656
486	0.00855968
498	0.00565683
510	0.00461478
522	0.00513581
534	0.000818752
546	0.00409376
558	0.0034983
570	0.00230739
582	0.00223296
594	0.00200966
606	0.00141421
618	0.0101972
630	0.00297728
642	0.000669888
654	0.00513581
666	0.00461478
678	0.00215853
690	0.00513581
702	0.00893184
714	0.0179381
726	0.0272421
738	0.122217
750	0.0588013
762	0.0214364
774	0.0182358
786	0.0132489
798	0.0181614
810	0.104056
822	0.034462
834	0.0163006
846	0.0483064
858	0.0281353
870	0.00893184
882	0.020841
894	0.0217341
906	0.00774093
918	0.00588013
930	0.00543354
942	0.0186824
954	0.0181614
966	0.0058057
978	0.00357274
990	0.00320058
1002	0.0039449
1014	0.0104205
1026	0.00387046
1038	0.00305171
1050	0.00327501
1062	0.00446592
1074	0.00521024
1086	0.00573126
1098	0.00729434
1110	0.00759206
1122	0.0133978
1134	0.0146631
1146	0.00997389
1158	0.00811309
1170	0.00632672
1182	0.00550797
1194	0.00662445
1206	0.00699661
1218	0.00699661
1230	0.00863411
1242	0.0105693
1254	0.00960173
1266	0.0198733
1278	0.0136211
1290	0.0141421
1302	0.0177892
1314	0.0188313
1326	0.0225529
1338	0.0280609
1350	0.0319313
1362	0.0346853
1374	0.0438404
1386	0.0304427
1398	0.0145142
1410	0.0143654
1422	0.0183847
1434	0.0367694
1446	0.0714547
1458	0.109936
1470	0.0755485
1482	0.0254557
1494	0.0225529
1506	0.0509859
1518	0.0101972
1530	0.00498694
1542	0.00387046
1554	0.00491251
1566	0.00498694
1578	0.00588013
1590	0.0155563
1602	0.0267955
1614	0.00803866
1626	0.0174171
1638	0.0108671
1650	0.00260512
1662	0.0018608
1674	0.00275398
1686	0.00506138
1698	0.00446592
1710	0.0037216
1722	0.0039449
1734	0.00454035
1746	0.00439149
1758	0.00610342
1770	0.00528467
1782	0.00506138
1794	0.00416819
1806	0.00282842
1818	0.00387046
1830	0.00215853
1842	0.00223296
1854	0.00119091
1866	0.00074432
1878	0.00111648
1890	0.00334944
1902	0.00640115
1914	0.00662445
1926	0.0039449
1938	0.00632672
1950	0.00111648
1962	0.00037216
1974	0
1986	0.000297728
1998	0.00037216
2010	0.000669888
2022	0.000967616
2034	0.00126534
2046	0.00111648
2058	0.000595456
2070	0.000521024
2082	0.000446592
2094	0.00037216
2106	0.000223296
2118	0.000297728
2130	7.4432e-05
2142	0.00037216
2154	0.000446592
2166	0.00037216
2178	0.000297728
2190	0.00037216
2202	7.4432e-05
2214	0.000297728
2226	0.000521024
2238	0.000148864
2250	0.000595456
2262	0.000595456
2274	0.00126534
2286	0.00334944
2298	0.00543354
2310	0.00602899
2322	0.00290285
2334	0.000446592
2346	0.0016375
2358	0.00126534
2370	0.00104205
2382	0.00416819
2394	0.0018608
2406	0.00178637
2418	0.00171194
2430	0.0016375
2442	0.00156307
2454	0.00156307
2466	0.00171194
2478	0.00178637
2490	0.00200966
2502	0.00267955
2514	0.00290285
2526	0.00320058
2538	0.0034983
2550	0.00364717
2562	0.00424262
2574	0.00446592
2586	0.00513581
2598	0.00550797
2610	0.00632672
2622	0.00684774
2634	0.00759206
2646	0.00878298
2658	0.0101228
2670	0.0110159
2682	0.0113137
2694	0.0107182
2706	0.0107926
2718	0.0113137
2730	0.0129512
2742	0.0138444
2754	0.0139932
2766	0.015854
2778	0.0193523
2790	0.0247859
2802	0.0320058
2814	0.043766
2826	0.0631183
2838	0.112169
2850	0.279492
2862	0.360772
2874	0.263117
2886	0.223519
2898	0.276738
2910	0.402677
2922	0.621209
2934	0.726382
2946	0.432301
2958	0.335093
2970	0.244584
2982	0.110159
2994	0.0694451
3006	0.0608109
3018	0.0635649
3030	0.0515069
3042	0.0662445
3054	0.101153
3066	0.0718269
3078	0.0355785
3090	0.022404
3102	0.012058
3114	0.00855968
3126	0.00655002
3138	0.00565683
3150	0.00461478
3162	0.00409376
3174	0.00401933
3186	0.00305171
3198	0.00230739
3210	0.00238182
3222	0.0016375
3234	0.00119091
3246	0.000669888
3258	0.000223296
3270	0.000893184
3282	0.00037216
3294	0.000595456
3306	0.000446592
3318	0.000521024
3330	0.00037216
3342	0.000297728
3354	0.000446592
3366	0.000297728
3378	0.0016375
3390	0.00148864
3402	0.00074432
3414	0.00148864
3426	0.000967616
3438	0.00104205
3450	0.000148864
3462	0.000967616
3474	0.00119091
3486	0.000893184
3498	0.000595456
3510	0.00104205
3522	0.000818752
3534	0.000967616
3546	0.000818752
3558	0.0016375
3570	0.00074432
3582	0.00126534
3594	0.00104205
3606	0.00148864
3618	0.0018608
3630	0.000818752
3642	0.00267955
3654	0.00290285
3666	0.0020841
3678	0.00126534
3690	0.00178637
3702	0.00171194
3714	0.00104205
3726	0.000818752
3738	0.000893184
3750	0.00245626
3762	0.00193523
3774	0.00156307
3786	0.00171194
3798	0.00200966
3810	0.000893184
3822	0.00141421
3834	0.000669888
3846	0.00133978
3858	0.000521024
3870	0.000818752
3882	0.00074432
3894	0.00156307
3906	0.00193523
3918	0.000893184
3930	0.00171194
3942	0.000893184
3954	0.00074432
3966	0.00223296
