Infrared Spectrum: Benzene, 1-methyl-4-(1-methylethyl)-2-nitro-
Formula: C 10 H 13 N O 2
CAS: 943-15-7
Origin: Sadtler Research Labs Under US-EPA Contract
1/CM	ABSORBANCE
450	0.0158886
462	0.0069208
474	0.00409399
486	0.0121845
498	0.012282
510	0.0166684
522	0.0137441
534	0.0156936
546	0.018423
558	0.0128668
570	0.0117946
582	0.0118921
594	0.0147189
606	0.0231018
618	0.0224195
630	0.0110148
642	0.00662837
654	0.0044839
666	0.0160835
678	0.0419147
690	0.0311923
702	0.0436692
714	0.0287554
726	0.0348964
738	0.0274882
750	0.0306075
762	0.0432793
774	0.0272933
786	0.0215422
798	0.108393
810	0.138026
822	0.129546
834	0.0611175
846	0.0148164
858	0.0313873
870	0.0521497
882	0.0279756
894	0.0496153
906	0.0269034
918	0.022322
930	0.0134517
942	0.00467885
954	0.00545866
966	0.00419147
978	0.00253438
990	0.00292428
1002	0.00789556
1014	0.00945517
1026	0.0173507
1038	0.0192028
1050	0.0218346
1062	0.028463
1074	0.0432793
1086	0.0496153
1098	0.022517
1110	0.0191053
1122	0.0162785
1134	0.0139391
1146	0.0171558
1158	0.0269034
1170	0.0209573
1182	0.00994255
1194	0.0111123
1206	0.0281706
1218	0.030315
1230	0.018423
1242	0.026416
1254	0.0339216
1266	0.0510774
1278	0.0795404
1290	0.0537093
1302	0.0471784
1314	0.0725221
1326	0.105567
1338	0.199728
1350	0.421194
1362	0.50785
1374	0.237159
1386	0.143192
1398	0.0975735
1410	0.0556588
1422	0.0450339
1434	0.0530269
1446	0.0868511
1458	0.118043
1470	0.124574
1482	0.0950391
1494	0.133347
1506	0.181988
1518	0.26221
1530	0.479777
1542	0.972031
1554	0.614391
1566	0.300226
1578	0.172338
1590	0.0758363
1602	0.0417197
1614	0.0316797
1626	0.0226144
1638	0.0123795
1650	0.0077006
1662	0.00536118
1674	0.00155962
1686	0.000584856
1698	0.000292428
1710	0.00848041
1722	0.00545866
1734	0.00175457
1746	0.00311923
1758	0.002047
1770	0.00545866
1782	0.00945517
1794	0.00409399
1806	0.00233942
1818	0.00136466
1830	0
1842	0.00126719
1854	0.00341166
1866	0.00185204
1878	0.00224195
1890	0.00214447
1902	0.00614099
1914	0.00906527
1926	0.00360661
1938	0.00214447
1950	0.00194952
1962	0.00175457
1974	0.00155962
1986	0.00214447
1998	0.00185204
2010	0.00214447
2022	0.00146214
2034	0.00146214
2046	0.00107224
2058	0.00116971
2070	0.00107224
2082	0.00136466
2094	0.000877284
2106	0.00107224
2118	0.000584856
2130	0.000779808
2142	0.000877284
2154	0.00048738
2166	0.000389904
2178	0
2190	0.00048738
2202	0.000292428
2214	0.000584856
2226	0.00097476
2238	0.00116971
2250	0.00126719
2262	0.00107224
2274	0.00107224
2286	0.00185204
2298	0.00155962
2310	0.00194952
2322	0.00185204
2334	0.00165709
2346	0.00214447
2358	0.0024369
2370	0.00185204
2382	0.002047
2394	0.00214447
2406	0.00302176
2418	0.00370409
2430	0.00341166
2442	0.00311923
2454	0.00253438
2466	0.00253438
2478	0.00233942
2490	0.00224195
2502	0.00194952
2514	0.00185204
2526	0.00146214
2538	0.00107224
2550	0.00175457
2562	0.00194952
2574	0.00311923
2586	0.00506875
2598	0.00555613
2610	0.0044839
2622	0.00409399
2634	0.00438642
2646	0.00399652
2658	0.00331418
2670	0.00360661
2682	0.00360661
2694	0.00389904
2706	0.0044839
2718	0.00497128
2730	0.0069208
2742	0.00789556
2754	0.00887032
2766	0.00926022
2778	0.0069208
2790	0.00672584
2802	0.00848041
2814	0.0119895
2826	0.0154987
2838	0.0205674
2850	0.0295352
2862	0.0482506
2874	0.0965987
2886	0.15138
2898	0.126914
2910	0.130325
2922	0.13091
2934	0.172825
2946	0.227606
2958	0.196804
2970	0.536605
2982	0.398092
2994	0.124282
3006	0.062872
3018	0.0428894
3030	0.0545866
3042	0.0596553
3054	0.0457162
3066	0.0575108
3078	0.0420122
3090	0.0227119
3102	0.0115996
3114	0.00994255
3126	0.0073107
3138	0.00604351
3150	0.0052637
3162	0.00536118
3174	0.00604351
3186	0.00682332
3198	0.00721322
3210	0.00643342
3222	0.00458137
3234	0.00399652
3246	0.00331418
3258	0.00302176
3270	0.00253438
3282	0.00214447
3294	0.00253438
3306	0.002047
3318	0.00214447
3330	0.002047
3342	0.00214447
3354	0.00194952
3366	0.00272933
3378	0.00272933
3390	0.00292428
3402	0.00302176
3414	0.00253438
3426	0.00292428
3438	0.00263185
3450	0.0024369
3462	0.00272933
3474	0.002047
3486	0.00224195
3498	0.00253438
3510	0.00253438
3522	0.00331418
3534	0.00233942
3546	0.00175457
3558	0.00233942
3570	0.002047
3582	0.00253438
3594	0.00224195
3606	0.00136466
3618	0.002047
3630	0.00175457
3642	0.00175457
3654	0.00165709
3666	0.00165709
3678	0.00116971
3690	0.00165709
3702	0.00126719
3714	0.0024369
3726	0.00165709
3738	0.00146214
3750	0.00194952
3762	0.00107224
3774	0.00097476
3786	0.000779808
3798	0.00116971
3810	0.00175457
3822	0.00233942
3834	0.00224195
3846	0.00224195
3858	0.00165709
3870	0.00116971
3882	0.00116971
3894	0.00175457
3906	0.00292428
3918	0.00185204
3930	0.00224195
3942	0.00165709
3954	0.00194952
3966	0.0024369
