Infrared Spectrum: Benzoic acid, p-nitro-, 2-chloroethyl ester
Formula: C 9 H 8 Cl N O 4
CAS: 949-03-1
Origin: Sadtler Research Labs Under US-EPA Contract
1/CM	ABSORBANCE
450	0
462	0.0107133
474	0.0209469
486	0.0232655
498	0.0214266
510	0.0234254
522	0.0155103
534	0.00999375
546	0.0129519
558	0.00887445
570	0.0094341
582	0.0100737
594	0.0075153
606	0.0083148
618	0.00663585
630	0.00647595
642	0.00775515
654	0.0083148
666	0.0155903
678	0.0260637
690	0.0194278
702	0.022466
714	0.0950606
726	0.105294
738	0.0337389
750	0.024065
762	0.0344585
774	0.0342986
786	0.0355778
798	0.0326196
810	0.0462911
822	0.0482099
834	0.0450918
846	0.0701162
858	0.0806696
870	0.0723548
882	0.0332592
894	0.0145509
906	0.0117527
918	0.0099138
930	0.0118326
942	0.011273
954	0.017669
966	0.0329394
978	0.0201474
990	0.0151106
1002	0.0227858
1014	0.099218
1026	0.0441324
1038	0.027263
1050	0.0338988
1062	0.0453317
1074	0.060842
1086	0.102656
1098	0.321479
1110	0.310126
1122	0.234813
1134	0.0680374
1146	0.0340587
1158	0.027183
1170	0.0369369
1182	0.0299013
1194	0.0322199
1206	0.0465309
1218	0.0509282
1230	0.108732
1242	0.170853
1254	0.372967
1266	0.776155
1278	0.512559
1290	0.132157
1302	0.124002
1314	0.115288
1326	0.0822686
1338	0.117127
1350	0.199475
1362	0.150306
1374	0.0761924
1386	0.0684372
1398	0.0435728
1410	0.0503685
1422	0.0273429
1434	0.0295016
1446	0.0404547
1458	0.035258
1470	0.0305409
1482	0.0298214
1494	0.0328595
1506	0.0344585
1518	0.0582036
1530	0.130319
1542	0.297974
1554	0.209229
1566	0.0811493
1578	0.0585234
1590	0.0669981
1602	0.0839475
1614	0.0690768
1626	0.0329394
1638	0.0210268
1650	0.0124722
1662	0.00951405
1674	0.0113529
1686	0.0155103
1698	0.0183885
1710	0.0311006
1722	0.0419738
1734	0.106493
1746	0.345064
1758	0.300052
1770	0.0761124
1782	0.0333392
1794	0.0235053
1806	0.0227058
1818	0.0155903
1830	0.0103935
1842	0.0099138
1854	0.0081549
1866	0.00695565
1878	0.00663585
1890	0.006396
1902	0.0065559
1914	0.0075153
1926	0.0099138
1938	0.0115928
1950	0.0100737
1962	0.00711555
1974	0.0060762
1986	0.00567645
1998	0.00535665
2010	0.0055965
2022	0.00535665
2034	0.0059163
2046	0.0060762
2058	0.0068757
2070	0.0073554
2082	0.00759525
2094	0.00727545
2106	0.0067158
2118	0.0065559
2130	0.0065559
2142	0.0059163
2154	0.0052767
2166	0.00535665
2178	0.0054366
2190	0.0055965
2202	0.00615615
2214	0.0060762
2226	0.00567645
2238	0.00583635
2250	0.00647595
2262	0.00663585
2274	0.007995
2286	0.0106334
2298	0.0150306
2310	0.019268
2322	0.0160699
2334	0.0113529
2346	0.0178289
2358	0.0142311
2370	0.0154304
2382	0.0165497
2394	0.0076752
2406	0.00695565
2418	0.006396
2430	0.00631605
2442	0.0062361
2454	0.0065559
2466	0.006396
2478	0.00615615
2490	0.00615615
2502	0.006396
2514	0.0062361
2526	0.006396
2538	0.00615615
2550	0.0060762
2562	0.00647595
2574	0.0065559
2586	0.0062361
2598	0.00647595
2610	0.0067158
2622	0.00647595
2634	0.00647595
2646	0.00663585
2658	0.0065559
2670	0.0070356
2682	0.00775515
2694	0.00823485
2706	0.0087945
2718	0.00839475
2730	0.00807495
2742	0.0078351
2754	0.00791505
2766	0.0078351
2778	0.00775515
2790	0.00775515
2802	0.00759525
2814	0.00791505
2826	0.00903435
2838	0.0101537
2850	0.0120725
2862	0.0146309
2874	0.0163898
2886	0.0183085
2898	0.0200675
2910	0.0159101
2922	0.0155903
2934	0.017589
2946	0.0241449
2958	0.0365372
2970	0.0450119
2982	0.0375765
2994	0.0222261
3006	0.0191081
3018	0.0195878
3030	0.0130319
3042	0.0106334
3054	0.0114329
3066	0.0120725
3078	0.0107933
3090	0.0104735
3102	0.00983385
3114	0.00967395
3126	0.0084747
3138	0.0081549
3150	0.0081549
3162	0.00759525
3174	0.00775515
3186	0.0076752
3198	0.00743535
3210	0.0073554
3222	0.0071955
3234	0.0070356
3246	0.00711555
3258	0.0071955
3270	0.00663585
3282	0.00695565
3294	0.00647595
3306	0.0060762
3318	0.00583635
3330	0.00599625
3342	0.00599625
3354	0.00647595
3366	0.0059163
3378	0.00599625
3390	0.00663585
3402	0.0062361
3414	0.00711555
3426	0.00615615
3438	0.0070356
3450	0.0067158
3462	0.00743535
3474	0.00871455
3486	0.0097539
3498	0.0075153
3510	0.00663585
3522	0.00695565
3534	0.00631605
3546	0.00727545
3558	0.0076752
3570	0.00935415
3582	0.0075153
3594	0.007995
3606	0.00727545
3618	0.0070356
3630	0.0091143
3642	0.00807495
3654	0.00775515
3666	0.0060762
3678	0.00887445
3690	0.00663585
3702	0.0071955
3714	0.00775515
3726	0.00775515
3738	0.0086346
3750	0.00551655
3762	0.00663585
3774	0.0068757
3786	0.00583635
3798	0.00679575
3810	0.00535665
3822	0.00791505
3834	0.0071955
3846	0.0071955
3858	0.00807495
3870	0.0071955
3882	0.00679575
3894	0.0068757
3906	0.0073554
3918	0.00823485
3930	0.00871455
3942	0.0076752
3954	0.0068757
3966	0.0071955
