Infrared Spectrum: Benzothiazole
Formula: C 7 H 5 N S
CAS: 95-16-9
Origin: Sadtler Research Labs Under US-EPA Contract
1/CM	ABSORBANCE
450	0.00478895
462	0.0114665
474	0.0146366
486	0.0109943
498	0.0112642
510	0.0110618
522	0.017537
534	0.017537
546	0.0099826
558	0.0047215
570	0.0025631
582	0.00964535
594	0.0203024
606	0.0213816
618	0.0287337
630	0.0203024
642	0.0446519
654	0.0656289
666	0.0780397
678	0.0467429
690	0.0362881
702	0.051262
714	0.225688
726	0.407196
738	0.359576
750	0.389052
762	0.358429
774	0.181913
786	0.133551
798	0.298669
810	0.342174
822	0.319443
834	0.195942
846	0.116689
858	0.28039
870	0.428847
882	0.307167
894	0.0475522
906	0.0222585
918	0.020235
930	0.0213142
942	0.029678
954	0.0212467
966	0.0184138
978	0.0124108
990	0.0078242
1002	0.039121
1014	0.0860662
1026	0.0375022
1038	0.012883
1050	0.0414143
1062	0.0982747
1074	0.128357
1086	0.076286
1098	0.0317015
1110	0.0550392
1122	0.099219
1134	0.0750718
1146	0.0293407
1158	0.0312968
1170	0.0325783
1182	0.0186836
1194	0.0444495
1206	0.0510596
1218	0.0138272
1230	0.0118712
1242	0.0169299
1254	0.021584
1266	0.058749
1278	0.0878874
1290	0.152774
1302	0.189669
1314	0.139824
1326	0.0797933
1338	0.0406049
1350	0.0281941
1362	0.0151088
1374	0.00991515
1386	0.0176045
1398	0.0523412
1410	0.0983421
1422	0.307639
1434	0.352831
1446	0.192907
1458	0.284099
1470	0.547154
1482	0.437211
1494	0.12087
1506	0.0244843
1518	0.0168625
1530	0.0194256
1542	0.0402677
1554	0.0540274
1566	0.0484291
1578	0.0441123
1590	0.0462707
1602	0.0414143
1614	0.0287337
1626	0.0249565
1638	0.0786467
1650	0.066101
1662	0.023675
1674	0.0329156
1686	0.0350065
1698	0.0277894
1710	0.00897085
1722	0.0126132
1734	0.0290709
1746	0.0576697
1758	0.0804678
1770	0.0623913
1782	0.0636054
1794	0.113518
1806	0.0584792
1818	0.0263729
1830	0.0184138
1842	0.0051262
1854	0.0025631
1866	0.0109269
1878	0.0132202
1890	0.0097128
1902	0.0255636
1914	0.0268451
1926	0.0138272
1938	0.0276545
1950	0.0217189
1962	0.0025631
1974	0.00168625
1986	0.0016188
1998	0.0014839
2010	0.0009443
2022	0.0012141
2034	0.00033725
2046	0.0005396
2058	0.0002698
2070	0
2082	0.001349
2094	0.00209095
2106	0.0014839
2118	0.00155135
2130	0.00168625
2142	0.0031027
2154	0.0031027
2166	0.00411445
2178	0.00397955
2190	0.00384465
2202	0.0028329
2214	0.00384465
2226	0.0049913
2238	0.00438425
2250	0.00465405
2262	0.00478895
2274	0.00708225
2286	0.00748695
2298	0.00532855
2310	0.0066101
2322	0.00775675
2334	0.0059356
2346	0.0044517
2358	0.004047
2370	0.0031027
2382	0.0036423
2394	0.00317015
2406	0.0014839
2418	0.0006745
2430	0.00209095
2442	0.00155135
2454	0.0009443
2466	0.00303525
2478	0.0037772
2490	0.00397955
2502	0.00182115
2514	0.00020235
2526	0.00020235
2538	0.00195605
2550	0.00317015
2562	0.00290035
2574	0.00317015
2586	0.00370975
2598	0.00195605
2610	0.00465405
2622	0.00681245
2634	0.0044517
2646	0.0018886
2658	0.0021584
2670	0.0022933
2682	0.0016188
2694	0.00182115
2706	0.00182115
2718	0.00182115
2730	0.0032376
2742	0.00317015
2754	0.00317015
2766	0.00370975
2778	0.00465405
2790	0.0045866
2802	0.0024282
2814	0.001349
2826	0.00222585
2838	0.00384465
2850	0.00627285
2862	0.00978025
2874	0.0130853
2886	0.0165252
2898	0.0180766
2910	0.018144
2922	0.0171997
2934	0.0182115
2946	0.0153786
2958	0.0125457
2970	0.0115339
2982	0.012141
2994	0.0184138
3006	0.0242146
3018	0.0247541
3030	0.0412794
3042	0.061312
3054	0.0704178
3066	0.204981
3078	0.316138
3090	0.179889
3102	0.0752068
3114	0.0341972
3126	0.0271149
3138	0.009443
3150	0.00370975
3162	0.00168625
3174	0.00155135
3186	0.00182115
3198	0.0009443
3210	0.0009443
3222	0.0014839
3234	0.0014839
3246	0.00182115
3258	0.00114665
3270	0.00155135
3282	0.0018886
3294	0.00209095
3306	0.001349
3318	0.00074195
3330	0.00182115
3342	0.0012141
3354	0.001349
3366	0.00155135
3378	0.001349
3390	0.00168625
3402	0.00182115
3414	0.0021584
3426	0.0033725
3438	0.00101175
3450	0.00195605
3462	0.0005396
3474	0.0018886
3486	0.002698
3498	0.0028329
3510	0.00411445
3522	0.00586815
3534	0.0082289
3546	0.0103873
3558	0.0105222
3570	0.00856615
3582	0.0105222
3594	0.0109269
3606	0.00802655
3618	0.00667755
3630	0.0055309
3642	0.00276545
3654	0.00155135
3666	0.00155135
3678	0.00276545
3690	0.0016188
3702	0.00303525
3714	0.0025631
3726	0.00276545
3738	0.00303525
3750	0.0044517
3762	0.0028329
3774	0.00370975
3786	0.00317015
3798	0.0036423
3810	0.00209095
3822	0.00343995
3834	0.00155135
3846	0.00276545
3858	0.0052611
3870	0.0071497
3882	0.00775675
3894	0.00573325
3906	0.00586815
3918	0.00384465
3930	0.0055309
3942	0.00654265
3954	0.0091732
3966	0.00573325
