Infrared Spectrum: 5-Norbornene-2-methanol
Formula: C 8 H 12 O
CAS: 95-12-5
Origin: Sadtler Research Labs Under US-EPA Contract
1/CM	ABSORBANCE
450	0.00302593
462	0.00244402
474	0.000698292
486	0.00116382
498	0.00535357
510	0.00715749
522	0.0122783
534	0.0192612
546	0.0153042
558	0.00739026
570	0.00622644
582	0.0083795
594	0.0120455
606	0.00744845
618	0.00465528
630	0.00442252
642	0.00523719
654	0.00733207
666	0.00622644
678	0.00494624
690	0.0235092
702	0.0925237
714	0.191565
726	0.143674
738	0.0193194
750	0.00640101
762	0.0084377
774	0.0122783
786	0.0122201
798	0.00616825
810	0.0116382
822	0.0257204
834	0.028339
846	0.0137913
858	0.00977609
870	0.00768121
882	0.00861227
894	0.0208906
906	0.0340417
918	0.0354965
930	0.0356711
942	0.0286882
954	0.0303175
966	0.0418393
978	0.0503352
990	0.053303
1002	0.073437
1014	0.138611
1026	0.255109
1038	0.255517
1050	0.148038
1062	0.116731
1074	0.0837368
1086	0.0539431
1098	0.032296
1110	0.0228691
1122	0.0293283
1134	0.0425376
1146	0.0471347
1158	0.0400936
1170	0.0336926
1182	0.0313649
1194	0.032296
1206	0.0353801
1218	0.0369513
1230	0.0377078
1242	0.0421303
1254	0.0491714
1266	0.0457963
1278	0.0347982
1290	0.0264187
1302	0.0233928
1314	0.0272916
1326	0.0416066
1338	0.0652321
1350	0.0709348
1362	0.0492878
1374	0.0471929
1386	0.055456
1398	0.0407337
1410	0.0241493
1422	0.0176319
1434	0.018272
1446	0.0295028
1458	0.0364276
1470	0.0333434
1482	0.0224617
1494	0.00803036
1506	0.00360784
1518	0.00226945
1530	0.00168754
1542	0.00168754
1554	0.00395699
1566	0.00890322
1578	0.00983428
1590	0.00477166
1602	0.00482985
1614	0.00826312
1626	0.0112891
1638	0.00936875
1650	0.00494624
1662	0.00186211
1674	0.00116382
1686	0.00058191
1698	0.000756483
1710	0.000232764
1722	0.000989247
1734	0.00250221
1746	0.00360784
1758	0.00209488
1770	0.00151297
1782	0.00110563
1794	0.00104744
1806	0.00203668
1818	0.0019203
1830	0.000931056
1842	0.00058191
1854	0.000931056
1866	0.000465528
1878	0.000931056
1890	0.000523719
1902	0.000872865
1914	0.000290955
1926	0.000756483
1938	0.000349146
1950	0.000523719
1962	0.000640101
1974	0.000640101
1986	0.00116382
1998	0.00110563
2010	0.00197849
2022	0.00209488
2034	0.00308412
2046	0.00413156
2058	0.00465528
2070	0.0038988
2082	0.00238583
2094	0.00238583
2106	0.00139658
2118	0.00133839
2130	0.000814674
2142	0.0012802
2154	0.00180392
2166	0.00168754
2178	0.00174573
2190	0.00215307
2202	0.00221126
2214	0.00221126
2226	0.00162935
2238	0.00116382
2250	0.00110563
2262	0.000640101
2274	0.000640101
2286	0.000290955
2298	0.000698292
2310	0.00104744
2322	0.000174573
2334	5.8191e-05
2346	0.000931056
2358	0.000989247
2370	0.00174573
2382	0.00162935
2394	0.00145477
2406	0.000872865
2418	0.000989247
2430	0.00162935
2442	0.000989247
2454	0.000989247
2466	0.00110563
2478	0.000814674
2490	0.00151297
2502	0.00116382
2514	0.00122201
2526	0.00174573
2538	0.00221126
2550	0.00232764
2562	0.00238583
2574	0.00180392
2586	0.00186211
2598	0.00273498
2610	0.00244402
2622	0.00250221
2634	0.00285136
2646	0.0032587
2658	0.00378241
2670	0.00360784
2682	0.00418975
2694	0.00418975
2706	0.00523719
2718	0.00611005
2730	0.00727387
2742	0.00931056
2754	0.00942694
2766	0.0107653
2778	0.0116382
2790	0.0137331
2802	0.0134421
2814	0.0137913
2826	0.0161771
2838	0.0225781
2850	0.0413738
2862	0.111785
2874	0.242656
2886	0.252782
2898	0.169801
2910	0.158978
2922	0.203087
2934	0.260696
2946	0.34839
2958	0.413913
2970	0.525348
2982	0.530178
2994	0.264653
3006	0.0541758
3018	0.0160607
3030	0.00925237
3042	0.0129766
3054	0.0470183
3066	0.104046
3078	0.0829804
3090	0.0219962
3102	0.00680835
3114	0.00587729
3126	0.00855408
3138	0.0135003
3150	0.0119873
3162	0.00605186
3174	0.00308412
3186	0.00186211
3198	0.00209488
3210	0.00174573
3222	0.00174573
3234	0.00180392
3246	0.00209488
3258	0.00174573
3270	0.00122201
3282	0.00174573
3294	0.00157116
3306	0.00157116
3318	0.00221126
3330	0.0032005
3342	0.00221126
3354	0.00337508
3366	0.00238583
3378	0.00209488
3390	0.00203668
3402	0.00232764
3414	0.00302593
3426	0.00372422
3438	0.00331689
3450	0.0032005
3462	0.00459709
3474	0.00459709
3486	0.00494624
3498	0.00343327
3510	0.00296774
3522	0.00285136
3534	0.00290955
3546	0.00221126
3558	0.00290955
3570	0.00250221
3582	0.00238583
3594	0.00279317
3606	0.00267679
3618	0.005179
3630	0.0101834
3642	0.0175737
3654	0.0370677
3666	0.0585401
3678	0.0471929
3690	0.0178646
3702	0.00628463
3714	0.00413156
3726	0.00349146
3738	0.00413156
3750	0.00267679
3762	0.0025604
3774	0.0032005
3786	0.00331689
3798	0.00273498
3810	0.00384061
3822	0.00424794
3834	0.00407337
3846	0.00436432
3858	0.00564453
3870	0.00552814
3882	0.00541176
3894	0.00523719
3906	0.00500443
3918	0.00430613
3930	0.00360784
3942	0.00430613
3954	0.00407337
3966	0.00529538
