Infrared Spectrum: Benzo[b]thiophene
Formula: C 8 H 6 S
CAS: 95-15-8
Origin: Sadtler Research Labs Under US-EPA Contract
1/CM	ABSORBANCE
450	0.0375081
462	0.0569301
474	0.0973156
486	0.0514838
498	0.017264
510	0.0203469
522	0.0242518
534	0.0376109
546	0.074708
558	0.140065
570	0.0638152
582	0.0142839
594	0.00637124
606	0.0139756
618	0.0109955
630	0
642	0.014695
654	0.0379192
666	0.0948493
678	0.394503
690	0.79024
702	0.379192
714	0.225049
726	0.314863
738	0.588723
750	0.740811
762	1.02762
774	0.492436
786	0.186513
798	0.222788
810	0.142634
822	0.0498396
834	0.0455236
846	0.0488119
858	0.139654
870	0.179731
882	0.108517
894	0.0455236
906	0.021169
918	0.0363777
930	0.0534362
942	0.0331921
954	0.019422
966	0.0154143
978	0.0117149
990	0.00873477
1002	0.0666925
1014	0.117149
1026	0.0730638
1038	0.057444
1050	0.14397
1062	0.137598
1074	0.0538473
1086	0.141092
1098	0.166372
1110	0.0500451
1122	0.029801
1134	0.0452153
1146	0.051381
1158	0.081593
1170	0.0739886
1182	0.0242518
1194	0.053128
1206	0.076866
1218	0.0615544
1230	0.0159281
1242	0.0322673
1254	0.10307
1266	0.0981377
1278	0.0273347
1290	0.016853
1302	0.0351446
1314	0.0715224
1326	0.0605268
1338	0.0585743
1350	0.0532307
1362	0.0310341
1374	0.0567246
1386	0.059602
1398	0.0677202
1410	0.201002
1422	0.281465
1434	0.210765
1446	0.140681
1458	0.204702
1470	0.138626
1482	0.038433
1494	0.0414131
1506	0.0333977
1518	0.0153115
1530	0.0167502
1542	0.0281568
1554	0.0746052
1566	0.112524
1578	0.0913554
1590	0.0519976
1602	0.0390496
1614	0.0238408
1626	0.0235325
1638	0.0374054
1650	0.0365833
1662	0.0309314
1674	0.0287734
1686	0.02158
1698	0.0228132
1710	0.0141812
1722	0.0218883
1734	0.0287734
1746	0.038844
1758	0.0469622
1770	0.0528197
1782	0.0433656
1794	0.029801
1806	0.0368916
1818	0.0321645
1830	0.0113038
1842	0.00770715
1854	0.0156198
1866	0.0245601
1878	0.0231215
1890	0.0350418
1902	0.0371998
1914	0.0277457
1926	0.0404882
1938	0.038433
1950	0.0119204
1962	0.00637124
1974	0.00554915
1986	0.00606296
1998	0.00647401
2010	0.00780991
2022	0.00688505
2034	0.00482981
2046	0.00411048
2058	0.00544639
2070	0.00626848
2082	0.00657677
2094	0.00544639
2106	0.0059602
2118	0.0059602
2130	0.004316
2142	0.00575467
2154	0.00637124
2166	0.00482981
2178	0.00801544
2190	0.00883753
2202	0.00606296
2214	0.00544639
2226	0.00534362
2238	0.00411048
2250	0.00688505
2262	0.00924858
2274	0.00904306
2286	0.0113038
2298	0.0132563
2310	0.0122287
2322	0.00955687
2334	0.00657677
2346	0.00524086
2358	0.00832372
2370	0.00780991
2382	0.0102762
2394	0.010379
2406	0.00822096
2418	0.00678229
2430	0.00688505
2442	0.00554915
2454	0.00534362
2466	0.00585743
2478	0.00482981
2490	0.00308286
2502	0.00328838
2514	0.00400772
2526	0.00411048
2538	0.00503534
2550	0.00709058
2562	0.00637124
2574	0.00441877
2586	0.00503534
2598	0.00780991
2610	0.0112011
2622	0.012948
2634	0.01079
2646	0.00750163
2658	0.00801544
2670	0.00503534
2682	0.00256905
2694	0.00246629
2706	0.00277457
2718	0.00195248
2730	0.00205524
2742	0.00184972
2754	0.00195248
2766	0.00205524
2778	0.00113038
2790	0.00143867
2802	0.00164419
2814	0.00154143
2826	0.00236353
2838	0.00411048
2850	0.00359667
2862	0.00349391
2874	0.00637124
2886	0.00996791
2898	0.0143867
2910	0.0156198
2922	0.0104817
2934	0.00647401
2946	0.00606296
2958	0.00657677
2970	0.00883753
2982	0.0166474
2994	0.0329866
3006	0.0537445
3018	0.0824151
3030	0.113449
3042	0.143045
3054	0.235325
3066	0.502095
3078	0.574645
3090	0.295235
3102	0.117149
3114	0.0739886
3126	0.0481954
3138	0.0137701
3150	0.00554915
3162	0.00349391
3174	0.00452153
3186	0.00462429
3198	0.00349391
3210	0.00246629
3222	0.00164419
3234	0.00195248
3246	0.00256905
3258	0.002158
3270	0.00256905
3282	0.00143867
3294	0.00256905
3306	0.00246629
3318	0.00256905
3330	0.00205524
3342	0.00236353
3354	0.00236353
3366	0.00246629
3378	0.00256905
3390	0.00277457
3402	0.00246629
3414	0.00256905
3426	0.00195248
3438	0.00195248
3450	0.00205524
3462	0.00184972
3474	0.00184972
3486	0.0029801
3498	0.00205524
3510	0.00205524
3522	0.00256905
3534	0.002158
3546	0.00349391
3558	0.00236353
3570	0.00359667
3582	0.00503534
3594	0.00534362
3606	0.00339115
3618	0.00493258
3630	0.00647401
3642	0.00503534
3654	0.00400772
3666	0.00482981
3678	0.00452153
3690	0.00349391
3702	0.00750163
3714	0.00534362
3726	0.00873477
3738	0.00832372
3750	0.0157226
3762	0.0123314
3774	0.0094541
3786	0.0106872
3798	0.00452153
3810	0.00493258
3822	0.00698782
3834	0.00308286
3846	0.004316
3858	0.00801544
3870	0.00822096
3882	0.00935134
3894	0.00647401
3906	0.0101734
3918	0.0117149
3930	0.0147977
3942	0.0147977
3954	0.0122287
3966	0.00852925
