Infrared Spectrum: Indene
Formula: C 9 H 8
CAS: 95-13-6
Origin: Sadtler Research Labs Under US-EPA Contract
1/CM	ABSORBANCE
450	0.0024256
462	0.00379
474	0.0051544
486	0.004169
498	0
510	0.0074284
522	0.0108394
534	0.0374452
546	0.0877006
558	0.0271364
570	0.0137198
582	0.0156148
594	0.0125828
606	0.0065188
618	0.0062914
630	0.0054576
642	0.0018192
654	0.0050786
666	0.0278944
678	0.0925518
690	0.263405
702	0.188969
714	0.23733
726	0.185558
738	0.154177
750	0.330033
762	0.550763
774	0.328517
786	0.0791352
798	0.0016676
810	0.0085654
822	0.021982
834	0.0194806
846	0.0176614
858	0.0341858
870	0.0406288
882	0.0149326
894	0.0268332
906	0.0600336
918	0.117642
930	0.0885344
942	0.117642
954	0.0863362
966	0.0091718
978	0.0078074
990	0.0042448
1002	0.0125828
1014	0.0516956
1026	0.050786
1038	0.0093992
1050	0.009475
1062	0.018571
1074	0.0183436
1086	0.008338
1098	0.014023
1110	0.023498
1122	0.0300168
1134	0.0219062
1146	0.0146294
1158	0.0219062
1170	0.02653
1182	0.0172824
1194	0.0153874
1206	0.019708
1218	0.0397192
1230	0.038658
1242	0.026909
1254	0.0228916
1266	0.0128102
1278	0.0124312
1290	0.0153116
1302	0.0232706
1314	0.0282734
1326	0.0266816
1338	0.0222094
1350	0.0244834
1362	0.0268332
1374	0.0306232
1386	0.0432818
1398	0.12651
1410	0.122265
1422	0.025772
1434	0.011749
1446	0.066704
1458	0.143186
1470	0.118551
1482	0.0389612
1494	0.0100056
1506	0.0050786
1518	0.0031078
1530	0.0062156
1542	0.0124312
1554	0.0233464
1566	0.0241044
1578	0.0150842
1590	0.0148568
1602	0.0437366
1614	0.0601094
1626	0.0406288
1638	0.01516
1650	0.0058366
1662	0.0085654
1674	0.0182678
1686	0.024635
1698	0.0167518
1710	0.006822
1722	0.0044722
1734	0.0057608
1746	0.005306
1758	0.0076558
1770	0.0123554
1782	0.0172824
1794	0.0175856
1806	0.0164486
1818	0.018571
1830	0.0175856
1842	0.0148568
1854	0.0201628
1866	0.018571
1878	0.0173582
1890	0.017434
1902	0.0156148
1914	0.010991
1926	0.0144778
1938	0.0195564
1950	0.0103088
1962	0.0008338
1974	0.000758
1986	0.0001516
1998	0.0006064
2010	0.0013644
2022	0.0017434
2034	0.0037142
2046	0.0044722
2058	0.004169
2070	0.0035626
2082	0.0035626
2094	0.0027288
2106	0.0016676
2118	0.0012128
2130	0.0028046
2142	0.0033352
2154	0.0024256
2166	0.0024256
2178	0.0033352
2190	0.0032594
2202	0.0021224
2214	0.0031836
2226	0.0024256
2238	0.00379
2250	0.0043964
2262	0.0031836
2274	0.002653
2286	0.0028046
2298	0.0043964
2310	0.0059882
2322	0.0044722
2334	0.0043964
2346	0.0043964
2358	0.001895
2370	0.0040174
2382	0.0033352
2394	0.0018192
2406	0.0012886
2418	0.0025772
2430	0.0025772
2442	0.0028804
2454	0.0028046
2466	0.0028804
2478	0.0025772
2490	0.0024256
2502	0.0027288
2514	0.0027288
2526	0.0032594
2538	0.003032
2550	0.003032
2562	0.0037142
2574	0.0037142
2586	0.0031078
2598	0.0034868
2610	0.002653
2622	0.000758
2634	0.0009096
2646	7.58e-05
2658	0.001895
2670	0.0042448
2682	0.0037142
2694	0.0034868
2706	0.00379
2718	0.0042448
2730	0.0039416
2742	0.004548
2754	0.0050786
2766	0.0065188
2778	0.0176614
2790	0.0294862
2802	0.0231948
2814	0.0073526
2826	0.0051544
2838	0.0046238
2850	0.0053818
2862	0.0074284
2874	0.01137
2886	0.0410078
2898	0.154935
2910	0.19617
2922	0.121735
2934	0.0472992
2946	0.0149326
2958	0.0126586
2970	0.012128
2982	0.0116732
2994	0.0165244
3006	0.0505586
3018	0.127723
3030	0.186241
3042	0.170777
3054	0.189121
3066	0.370435
3078	0.449873
3090	0.293649
3102	0.0867152
3114	0.051165
3126	0.0432818
3138	0.0326698
3150	0.029562
3162	0.012128
3174	0.0053818
3186	0.0040174
3198	0.0040932
3210	0.0039416
3222	0.00379
3234	0.0028046
3246	0.0024256
3258	0.002653
3270	0.0028046
3282	0.0040174
3294	0.0042448
3306	0.006064
3318	0.0059124
3330	0.0040932
3342	0.004169
3354	0.0039416
3366	0.0037142
3378	0.0031078
3390	0.0031078
3402	0.0044722
3414	0.0025772
3426	0.0039416
3438	0.002653
3450	0.0035626
3462	0.0036384
3474	0.001895
3486	0.0031836
3498	0.000379
3510	0.0016676
3522	0.0018192
3534	0.0039416
3546	0.0018192
3558	0.0036384
3570	0.0046996
3582	0.0046996
3594	0.0044722
3606	0.004169
3618	0.0033352
3630	0.0036384
3642	0.0032594
3654	0.0046996
3666	0.004169
3678	0.0051544
3690	0.004169
3702	0.0046238
3714	0.00379
3726	0.0032594
3738	0.0057608
3750	0.0039416
3762	0.0048512
3774	0.0028804
3786	0.0019708
3798	0.0028804
3810	0.004927
3822	0.0044722
3834	0.0012128
3846	0.0035626
3858	0.0046238
3870	0.004548
3882	0.00379
3894	0.0048512
3906	0.006064
3918	0.0068978
3930	0.0099298
3942	0.0080348
3954	0.0040174
3966	0.0031078
