Infrared Spectrum: Benzothiazole, 2,5-dimethyl-
Formula: C 9 H 9 N S
CAS: 95-26-1
Origin: Sadtler Research Labs Under US-EPA Contract
1/CM	ABSORBANCE
450	0
462	0.00830515
474	0.00436886
486	0.00791585
498	0.0104247
510	0.0190759
522	0.0373732
534	0.026862
546	0.00921353
558	0.0047149
570	0.00207629
582	0.00778608
594	0.0140149
606	0.0394062
618	0.0497011
630	0.088372
642	0.161475
654	0.0726701
666	0.0115926
678	0.0147936
690	0.0403146
702	0.015875
714	0.00968934
726	0.00519072
738	0.00635863
750	0.0102949
762	0.0261699
774	0.0580063
786	0.186909
798	0.279607
810	0.0949037
822	0.0121117
834	0.00895399
846	0.00813213
858	0.0246992
870	0.0793748
882	0.0765631
894	0.0257806
906	0.0149233
918	0.038195
930	0.0776013
942	0.0461109
954	0.0231852
966	0.0318797
978	0.0531184
990	0.061337
1002	0.0693826
1014	0.0532049
1026	0.0354267
1038	0.0480574
1050	0.0681282
1062	0.117137
1074	0.0794613
1086	0.0374597
1098	0.0205899
1110	0.0172591
1122	0.0295438
1134	0.0890641
1146	0.205466
1158	0.379009
1170	0.406087
1182	0.32987
1194	0.0792017
1206	0.0202871
1218	0.0189029
1230	0.0204601
1242	0.0607747
1254	0.0894102
1266	0.0484035
1278	0.057444
1290	0.090405
1302	0.120727
1314	0.0659654
1326	0.0365081
1338	0.0281164
1350	0.0282894
1362	0.0387574
1374	0.066398
1386	0.0785096
1398	0.0737082
1410	0.109784
1422	0.207542
1434	0.137814
1446	0.201227
1458	0.262348
1470	0.12488
1482	0.0819269
1494	0.0942981
1506	0.131541
1518	0.274459
1530	0.43256
1542	0.268793
1554	0.142961
1566	0.091573
1578	0.0523398
1590	0.0414825
1602	0.0349941
1614	0.0372867
1626	0.0277271
1638	0.0183405
1650	0.0119819
1662	0.00990562
1674	0.00938655
1686	0.00679119
1698	0.00696422
1710	0.00925678
1722	0.023142
1734	0.0252615
1746	0.0193787
1758	0.0136256
1770	0.00666142
1782	0.00519072
1794	0.0050177
1806	0.00886748
1818	0.00873771
1830	0.00553677
1842	0.00545026
1854	0.00821864
1866	0.0200275
1878	0.021282
1890	0.00709398
1902	0.00415258
1914	0.00523398
1926	0.00462839
1938	0.00315769
1950	0.00237908
1962	0.00229257
1974	0.00289815
1986	0.00328746
1998	0.00341722
2010	0.00402281
2022	0.0036335
2034	0.00259536
2046	0.0025521
2058	0.00289815
2070	0.0032442
2082	0.00272513
2094	0.00194652
2106	0.00173024
2118	0.00168698
2130	0.00207629
2142	0.00302792
2154	0.00475816
2166	0.00506095
2178	0.00519072
2190	0.00328746
2202	0.00328746
2214	0.00320094
2226	0.0032442
2238	0.00354699
2250	0.00298466
2262	0.00220606
2274	0.00229257
2286	0.00276838
2298	0.00523398
2310	0.00661817
2322	0.00583956
2334	0.00549351
2346	0.00787259
2358	0.00800236
2370	0.00847818
2382	0.00808887
2394	0.00692096
2406	0.00744003
2418	0.00834841
2430	0.00791585
2442	0.0071805
2454	0.00739678
2466	0.00709398
2478	0.00674794
2490	0.00640189
2502	0.00570979
2514	0.00670468
2526	0.0079591
2538	0.0086512
2550	0.00852143
2562	0.00583956
2574	0.00532049
2586	0.00493118
2598	0.00545026
2610	0.00536374
2622	0.00380653
2634	0.00389304
2646	0.00406606
2658	0.00493118
2670	0.00475816
2682	0.00519072
2694	0.00618561
2706	0.00817538
2718	0.00856469
2730	0.0101219
2742	0.0158317
2754	0.0115926
2766	0.0071805
2778	0.00748329
2790	0.00791585
2802	0.00938655
2814	0.0121982
2826	0.016221
2838	0.0243531
2850	0.0414392
2862	0.0863822
2874	0.129941
2886	0.118089
2898	0.0945576
2910	0.103295
2922	0.166103
2934	0.364562
2946	0.256681
2958	0.103728
2970	0.0891074
2982	0.0837004
2994	0.0836138
3006	0.0983641
3018	0.107405
3030	0.126913
3042	0.128297
3054	0.136213
3066	0.151785
3078	0.112033
3090	0.0669603
3102	0.0315336
3114	0.0175619
3126	0.0113763
3138	0.00839166
3150	0.00683445
3162	0.00549351
3174	0.00428234
3186	0.00376327
3198	0.00341722
3210	0.00350374
3222	0.00333071
3234	0.00341722
3246	0.00333071
3258	0.00337397
3270	0.00354699
3282	0.00307118
3294	0.00328746
3306	0.00372002
3318	0.00337397
3330	0.00337397
3342	0.00346048
3354	0.00311443
3366	0.0039363
3378	0.00307118
3390	0.00294141
3402	0.00372002
3414	0.00376327
3426	0.00298466
3438	0.00384978
3450	0.00233582
3462	0.00320094
3474	0.00354699
3486	0.00320094
3498	0.00367676
3510	0.00406606
3522	0.0025521
3534	0.00350374
3546	0.00311443
3558	0.00268187
3570	0.00367676
3582	0.00397955
3594	0.00367676
3606	0.00350374
3618	0.0017735
3630	0.0025521
3642	0.00237908
3654	0.00346048
3666	0.0043256
3678	0.00337397
3690	0.00320094
3702	0.00337397
3714	0.00376327
3726	0.00272513
3738	0.00198978
3750	0.00384978
3762	0.00250885
3774	0.00281164
3786	0.00229257
3798	0.00224931
3810	0.0021628
3822	0.00341722
3834	0.00415258
3846	0.00354699
3858	0.00372002
3870	0.00367676
3882	0.00302792
3894	0.00320094
3906	0.00350374
3918	0.00415258
3930	0.00276838
3942	0.00307118
3954	0.0036335
3966	0.00454188
