Infrared Spectrum: 1H-Indole, 2-methyl-
Formula: C 9 H 9 N
CAS: 95-20-5
Origin: Sadtler Research Labs Under US-EPA Contract
1/CM	ABSORBANCE
450	0.020602
462	0.0107744
474	0.0143358
486	0.0158234
498	0.0205569
510	0.0221799
522	0.0169505
534	0.0119014
546	0.0136145
558	0.0178972
570	0.018393
582	0.0142005
594	0.0292576
606	0.0852031
618	0.14764
630	0.0934078
642	0.0382738
654	0.018934
666	0.00888096
678	0.0035614
690	0.00410237
702	0.0137948
714	0.076818
726	0.218643
738	0.31737
750	0.295596
762	0.220401
774	0.325169
786	0.402709
798	0.254708
810	0.155935
822	0.112477
834	0.0802442
846	0.0462531
858	0.0236224
870	0.0100531
882	0.00739328
894	0.0156431
906	0.0245691
918	0.023397
930	0.00788918
942	0.000631134
954	0.00347124
966	0.0162292
978	0.0237126
990	0.0180324
1002	0.0253355
1014	0.0492285
1026	0.0222249
1038	0.00608593
1050	0.00559004
1062	0.00279502
1074	0.00396713
1086	0.00653675
1098	0.0114055
1110	0.010008
1122	0.0156882
1134	0.0371017
1146	0.0545931
1158	0.045622
1170	0.0235774
1182	0.0197906
1194	0.0261019
1206	0.0438187
1218	0.0603184
1230	0.0543677
1242	0.0398967
1254	0.0274092
1266	0.118022
1278	0.355599
1290	0.262236
1302	0.0794327
1314	0.0823179
1326	0.124288
1338	0.135333
1350	0.112207
1362	0.0816417
1374	0.0527448
1386	0.086285
1398	0.213954
1410	0.214631
1422	0.0908833
1434	0.0632937
1446	0.244835
1458	0.363398
1470	0.178701
1482	0.105219
1494	0.061761
1506	0.0279953
1518	0.023938
1530	0.020602
1542	0.0430073
1554	0.107789
1566	0.117932
1578	0.0764123
1590	0.0769082
1602	0.0747443
1614	0.0997643
1626	0.0917398
1638	0.0319624
1650	0.0373271
1662	0.0268683
1674	0.0103235
1686	0.00843015
1698	0.0136595
1710	0.0217741
1722	0.0655027
1734	0.11392
1746	0.0859695
1758	0.0352083
1770	0.0205569
1782	0.0209176
1794	0.0258765
1806	0.0106391
1818	0.0035614
1830	0.0073482
1842	0.0101883
1854	0.00766377
1866	0.0155079
1878	0.0157784
1890	0.0071228
1902	0.0140202
1914	0.0183029
1926	0.0026147
1938	0.00112703
1950	0.001668
1962	0.00117211
1974	0.000766377
1986	0.000991782
1998	0.000811458
2010	0.00121719
2022	0.000676215
2034	0.000180324
2046	0.00103686
2058	0.00139751
2070	0.001668
2082	0.00229913
2094	0.00216389
2106	0.00184832
2118	0.00153275
2130	0.00112703
2142	0.000495891
2154	0.000766377
2166	0.00103686
2178	0.00090162
2190	0.000721296
2202	0.000766377
2214	0.00117211
2226	0.000946701
2238	4.5081e-05
2250	0.000315567
2262	0.00162292
2274	0.00193848
2286	0.00392205
2298	0.00748345
2310	0.00946701
2322	0.00761869
2334	0.00568021
2346	0.00626626
2358	0.010549
2370	0.00811458
2382	0.00680723
2394	0.00193848
2406	0.00103686
2418	0.00184832
2430	0.00288518
2442	0.00432778
2454	0.00482367
2466	0.00536464
2478	0.00518432
2490	0.00392205
2502	0.00491383
2514	0.00608593
2526	0.00468842
2538	0.00549988
2550	0.00500399
2562	0.00365156
2574	0.00351632
2586	0.0052294
2598	0.0099629
2610	0.0104137
2622	0.00662691
2634	0.00369664
2646	0.00247945
2658	0.00351632
2670	0.00595069
2682	0.00531956
2694	0.00504907
2706	0.00455318
2718	0.0045081
2730	0.00703264
2742	0.00856539
2754	0.0128932
2766	0.0124874
2778	0.00680723
2790	0.00667199
2802	0.00847523
2814	0.0114055
2826	0.0145612
2838	0.020061
2850	0.0338108
2862	0.0532407
2874	0.0706419
2886	0.0778098
2898	0.0911538
2910	0.110944
2922	0.134477
2934	0.175861
2946	0.145567
2958	0.0844818
2970	0.0546382
2982	0.0544128
2994	0.059011
3006	0.060093
3018	0.0759164
3030	0.115137
3042	0.144394
3054	0.188439
3066	0.292621
3078	0.229282
3090	0.123973
3102	0.0932275
3114	0.0482367
3126	0.0189791
3138	0.0116309
3150	0.00969241
3162	0.00635642
3174	0.00531956
3186	0.00568021
3198	0.00559004
3210	0.00540972
3222	0.00441794
3234	0.00549988
3246	0.00414745
3258	0.00202864
3270	0.00148767
3282	0.00117211
3294	0.000405729
3306	0.000721296
3318	0.00153275
3330	0.000495891
3342	0.00144259
3354	0.00211881
3366	0.00144259
3378	0.00139751
3390	0.00220897
3402	0.00265978
3414	0.00333599
3426	0.00766377
3438	0.0154177
3450	0.0248847
3462	0.0345771
3474	0.0600479
3486	0.0988176
3498	0.200295
3510	0.208319
3522	0.0978709
3534	0.0152374
3546	0.0071228
3558	0.00311059
3570	0.00265978
3582	0.00500399
3594	0.00563512
3606	0.00446302
3618	0.00518432
3630	0.00649166
3642	0.0028401
3654	0.00428269
3666	0.00297535
3678	0.00788918
3690	0.00509415
3702	0.00351632
3714	0.0028401
3726	0.00631134
3738	0.00599577
3750	0.00486875
3762	0.00193848
3774	0.00117211
3786	0.00193848
3798	0.00486875
3810	4.5081e-05
3822	0.00644658
3834	0.00698755
3846	0.00419253
3858	0.00590561
3870	0.0100981
3882	0.00797934
3894	0.00252454
3906	0.00477859
3918	0.0061761
3930	0.00689739
3942	0.00874571
3954	0.0052294
3966	0.00581545
