Infrared Spectrum: Benzene, 1-chloro-2-methyl-
Formula: C 7 H 7 Cl
CAS: 95-49-8
Origin: Sadtler Research Labs Under US-EPA Contract
1/CM	ABSORBANCE
450	0.0215275
462	0.00666328
474	0.0134547
486	0.00743212
498	0.0103793
510	0.00499746
522	0.0131984
534	0.00909794
546	0.0445927
558	0.0422862
570	0.0107638
582	0.00935422
594	0.0144798
606	0.0107638
618	0.0135828
630	0.0106356
642	0.00820096
654	0.014608
666	0.0589444
678	0.238212
690	0.215147
702	0.0616353
714	0.0363918
726	0.182471
738	0.57317
750	0.680552
762	0.331114
774	0.0354948
786	0.0263968
798	0.0788061
810	0.081497
822	0.0217838
834	0.0165301
846	0.0239622
858	0.0178115
870	0.0111482
882	0.0129421
894	0.014608
906	0.0148642
918	0.014608
930	0.0226808
942	0.0283189
954	0.0208868
966	0.0190929
978	0.0310099
990	0.0399797
1002	0.0604821
1014	0.0862382
1026	0.0996929
1038	0.245516
1050	0.63724
1062	0.713868
1074	0.182087
1086	0.0540751
1098	0.0419018
1110	0.0304973
1122	0.0880322
1134	0.119555
1146	0.0543314
1158	0.021015
1170	0.0178115
1182	0.0139673
1194	0.0190929
1206	0.0288315
1218	0.021015
1230	0.0112763
1242	0.0153768
1254	0.0185803
1266	0.0228089
1278	0.0306255
1290	0.0262687
1302	0.013711
1314	0.0131984
1326	0.012814
1338	0.0164019
1350	0.0216557
1362	0.0292159
1374	0.0307536
1386	0.051256
1398	0.0636856
1410	0.0394671
1422	0.0680423
1434	0.19016
1446	0.268325
1458	0.292928
1470	0.456178
1482	0.540623
1494	0.323682
1506	0.0848287
1518	0.0371606
1530	0.0280627
1542	0.0294722
1554	0.0313943
1566	0.0820096
1578	0.150949
1590	0.145183
1602	0.0881603
1614	0.032035
1626	0.0170426
1638	0.0164019
1650	0.0156331
1662	0.011917
1674	0.0262687
1686	0.0258843
1698	0.0188366
1710	0.0254999
1722	0.0240903
1734	0.0178115
1746	0.0148642
1758	0.0103793
1770	0.0164019
1782	0.0312662
1794	0.0280627
1806	0.0120452
1818	0.0193491
1830	0.0196054
1842	0.0083291
1854	0.00691956
1866	0.0142235
1878	0.0147361
1890	0.0194773
1902	0.0347259
1914	0.0297285
1926	0.0144798
1938	0.0249873
1950	0.0216557
1962	0.00486932
1974	0.00358792
1986	0.0032035
1998	0.00333164
2010	0.00410048
2022	0.00435676
2034	0.0032035
2046	0.0032035
2058	0.0038442
2070	0.0025628
2082	0.00333164
2094	0.00333164
2106	0.00230652
2118	0.00140954
2130	0.00153768
2142	0.00115326
2154	0.00153768
2166	0.0012814
2178	0.00153768
2190	0.00333164
2202	0.00333164
2214	0.00115326
2226	0.00115326
2238	0.00089698
2250	0.00153768
2262	0.00269094
2274	0.0038442
2286	0.00474118
2298	0.00538188
2310	0.00820096
2322	0.0089698
2334	0.0032035
2346	0.0006407
2358	0.00435676
2370	0.0006407
2382	0.0012814
2394	0.00358792
2406	0.00551002
2418	0.0057663
2430	0.00563816
2442	0.00563816
2454	0.00333164
2466	0.00333164
2478	0.00410048
2490	0.00410048
2502	0.0025628
2514	0.00345978
2526	0.00358792
2538	0.00410048
2550	0.00756026
2562	0.00909794
2574	0.00563816
2586	0.00499746
2598	0.00538188
2610	0.00397234
2622	0.00397234
2634	0.00474118
2646	0.00294722
2658	0.00281908
2670	0.00333164
2682	0.00179396
2694	0.00243466
2706	0.0044849
2718	0.00525374
2730	0.006407
2742	0.0101231
2754	0.0131984
2766	0.0096105
2778	0.00474118
2790	0.00474118
2802	0.0070477
2814	0.0089698
2826	0.0124296
2838	0.0184522
2850	0.0306255
2862	0.0535625
2874	0.0739368
2886	0.0691956
2898	0.0571504
2910	0.072271
2922	0.108663
2934	0.177089
2946	0.186059
2958	0.134419
2970	0.141979
2982	0.156203
2994	0.138904
3006	0.0852131
3018	0.127627
3030	0.161072
3042	0.127115
3054	0.145695
3066	0.256152
3078	0.346234
3090	0.229242
3102	0.0741931
3114	0.0353666
3126	0.0164019
3138	0.0135828
3150	0.0124296
3162	0.00884166
3174	0.00551002
3186	0.0051256
3198	0.00345978
3210	0.00307536
3222	0.00358792
3234	0.0032035
3246	0.0025628
3258	0.0019221
3270	0.00230652
3282	0.00307536
3294	0.0019221
3306	0.00358792
3318	0.00166582
3330	0.00307536
3342	0.00281908
3354	0.0038442
3366	0.00281908
3378	0.0044849
3390	0.00281908
3402	0.0032035
3414	0.00397234
3426	0.00358792
3438	0.006407
3450	0.00410048
3462	0.00294722
3474	0.00422862
3486	0.00410048
3498	0.0044849
3510	0.00371606
3522	0.0038442
3534	0.00333164
3546	0.00397234
3558	0.0051256
3570	0.0032035
3582	0.0044849
3594	0.00486932
3606	0.00345978
3618	0.006407
3630	0.00717584
3642	0.0051256
3654	0.00294722
3666	0.0051256
3678	0.00371606
3690	0.00986678
3702	0.0076884
3714	0.00563816
3726	0.00410048
3738	0.00345978
3750	0.00551002
3762	0.00666328
3774	0.00538188
3786	0.006407
3798	0.00551002
3810	0.00589444
3822	0.00615072
3834	0.00461304
3846	0.00474118
3858	0.00756026
3870	0.00691956
3882	0.00820096
3894	0.00691956
3906	0.00743212
3918	0.00538188
3930	0.00551002
3942	0.00422862
3954	0.0089698
3966	0.00691956
