Infrared Spectrum: Benzene, 1,2-dimethyl-
Formula: C 8 H 10
CAS: 95-47-6
Origin: Sadtler Research Labs Under US-EPA Contract
1/CM	ABSORBANCE
450	0
462	0.0981181
474	0.1166
486	0.0813393
498	0.103739
510	0.113279
522	0.103228
534	0.102973
546	0.10391
558	0.101866
570	0.104847
582	0.107913
594	0.101695
606	0.0996512
618	0.101099
630	0.100333
642	0.102292
654	0.099055
666	0.101099
678	0.102292
690	0.100247
702	0.104421
714	0.13355
726	0.357722
738	0.632061
750	0.409933
762	0.197003
774	0.10144
786	0.101695
798	0.100673
810	0.100929
822	0.105102
834	0.102121
846	0.100418
858	0.102803
870	0.102547
882	0.101355
894	0.101355
906	0.100588
918	0.10161
930	0.105613
942	0.103654
954	0.103484
966	0.106976
978	0.120007
990	0.12367
1002	0.11626
1014	0.119922
1026	0.122733
1038	0.121029
1050	0.147007
1062	0.141811
1074	0.106721
1086	0.0995661
1098	0.100929
1110	0.115408
1122	0.124266
1134	0.124181
1146	0.110298
1158	0.105698
1170	0.10127
1182	0.100503
1194	0.0993957
1206	0.101866
1218	0.107998
1230	0.106635
1242	0.0976923
1254	0.0966702
1266	0.0977775
1278	0.0986292
1290	0.0987995
1302	0.0989699
1314	0.0987995
1326	0.100929
1338	0.10161
1350	0.104762
1362	0.107913
1374	0.120007
1386	0.13355
1398	0.127332
1410	0.110809
1422	0.115238
1434	0.13389
1446	0.183716
1458	0.255772
1470	0.264544
1482	0.256623
1494	0.268292
1506	0.23763
1518	0.125969
1530	0.110127
1542	0.109361
1554	0.108254
1566	0.108765
1578	0.11907
1590	0.136871
1602	0.143685
1614	0.125799
1626	0.106891
1638	0.0963295
1650	0.0951371
1662	0.100418
1674	0.101781
1686	0.0966702
1698	0.0962444
1710	0.0961592
1722	0.0947113
1734	0.0923264
1746	0.0924968
1758	0.093604
1770	0.0984588
1782	0.102803
1794	0.101099
1806	0.0946261
1818	0.0993957
1830	0.0983737
1842	0.0940299
1854	0.0969257
1866	0.0979478
1878	0.0993106
1890	0.107572
1902	0.106295
1914	0.0972664
1926	0.0957333
1938	0.101525
1950	0.0992254
1962	0.0910489
1974	0.0902823
1986	0.0893454
1998	0.0884085
2010	0.0877272
2022	0.0867051
2034	0.0866199
2046	0.0868754
2058	0.0866199
2070	0.0855979
2082	0.0878123
2094	0.0878975
2106	0.0873013
2118	0.087642
2130	0.0866199
2142	0.0861089
2154	0.0861089
2166	0.085683
2178	0.085172
2190	0.0860237
2202	0.0869606
2214	0.0867051
2226	0.0864496
2238	0.0850017
2250	0.085172
2262	0.0858534
2274	0.0857682
2286	0.0859385
2298	0.0858534
2310	0.0878975
2322	0.0894306
2334	0.0888344
2346	0.0855979
2358	0.0889196
2370	0.0799765
2382	0.0809986
2394	0.0831279
2406	0.0838944
2418	0.0840648
2430	0.0845758
2442	0.0848313
2454	0.0840648
2466	0.0827872
2478	0.0818503
2490	0.0810837
2502	0.0812541
2514	0.0808282
2526	0.0807431
2538	0.0810837
2550	0.0814244
2562	0.0838944
2574	0.0854275
2586	0.084661
2598	0.0837241
2610	0.0834686
2622	0.0838092
2634	0.084661
2646	0.0843203
2658	0.0857682
2670	0.087642
2682	0.0859385
2694	0.0848313
2706	0.0853423
2718	0.0875568
2730	0.0947964
2742	0.100247
2754	0.0970961
2766	0.0919858
2778	0.0931782
2790	0.0924968
2802	0.0924968
2814	0.0947113
2826	0.101014
2838	0.109616
2850	0.129291
2862	0.177924
2874	0.248787
2886	0.273828
2898	0.248702
2910	0.24027
2922	0.31701
2934	0.411892
2946	0.4084
2958	0.337792
2970	0.328679
2982	0.290948
2994	0.230901
3006	0.216763
3018	0.338985
3030	0.383018
3042	0.298272
3054	0.288137
3066	0.345372
3078	0.321269
3090	0.224088
3102	0.149647
3114	0.127417
3126	0.110468
3138	0.0937744
3150	0.0900268
3162	0.0888344
3174	0.0873013
3186	0.0847461
3198	0.0842351
3210	0.0816799
3222	0.0806579
3234	0.0825317
3246	0.0835537
3258	0.0812541
3270	0.0824465
3282	0.0824465
3294	0.0818503
3306	0.0814244
3318	0.0805727
3330	0.0810837
3342	0.082702
3354	0.0814244
3366	0.0827872
3378	0.0834686
3390	0.0855127
3402	0.0844906
3414	0.0844055
3426	0.0838092
3438	0.0850017
3450	0.0857682
3462	0.0854275
3474	0.0860237
3486	0.0859385
3498	0.0859385
3510	0.0848313
3522	0.0844055
3534	0.0850868
3546	0.0836389
3558	0.083213
3570	0.0833834
3582	0.0853423
3594	0.084661
3606	0.0843203
3618	0.0849165
3630	0.0836389
3642	0.0820206
3654	0.0801469
3666	0.0830427
3678	0.0841499
3690	0.0829575
3702	0.0815096
3714	0.0834686
3726	0.0799765
3738	0.0799765
3750	0.0827872
3762	0.0809986
3774	0.0806579
3786	0.0819355
3798	0.0855127
3810	0.0810837
3822	0.0828724
3834	0.0844055
3846	0.085683
3858	0.084661
3870	0.0848313
3882	0.0852572
3894	0.0875568
3906	0.0886641
3918	0.0847461
3930	0.0861089
3942	0.0844906
3954	0.084661
3966	0.0820206
