Infrared Spectrum: Benzene, 1-bromo-2-methyl-
Formula: C 7 H 7 Br
CAS: 95-46-5
Origin: Sadtler Research Labs Under US-EPA Contract
1/CM	ABSORBANCE
450	0.00216329
462	0.00090137
474	0.0148726
486	0.000180274
498	0.00135206
510	0.00288438
522	0.015143
534	0.0324493
546	0.0366858
558	0.00766164
570	0.0041463
582	0.00432658
594	0.00991507
606	0.00883343
618	0.00270411
630	0.0110869
642	0.0323592
654	0.160624
666	0.133222
678	0.0090137
690	0.0162247
702	0.0238863
714	0.0168556
726	0.175136
738	0.528023
750	0.457445
762	0.11159
774	0.0180274
786	0.0246975
798	0.0377674
810	0.0144219
822	0.0173063
834	0.0165852
846	0.0118981
858	0.00964466
870	0.0135205
882	0.0134304
894	0.0073011
906	0.0112671
918	0.0136107
930	0.0196499
942	0.0198301
954	0.0210921
966	0.0221737
978	0.0237962
990	0.0533611
1002	0.0624649
1014	0.0727406
1026	0.462493
1038	0.655116
1050	0.104559
1062	0.046691
1074	0.0409222
1086	0.0262299
1098	0.020371
1110	0.0181175
1122	0.0295649
1134	0.0219934
1146	0.0148726
1158	0.0140614
1170	0.0128896
1182	0.0107263
1194	0.00955452
1206	0.0100953
1218	0.00955452
1230	0.00639973
1242	0.00775178
1254	0.00919397
1266	0.0196499
1278	0.0255088
1290	0.0146022
1302	0.010546
1314	0.00883343
1326	0.0106362
1338	0.0114474
1350	0.0173063
1362	0.0140614
1374	0.0190189
1386	0.0429953
1398	0.0437164
1410	0.0280326
1422	0.0699463
1434	0.156478
1446	0.154946
1458	0.244181
1470	0.34216
1482	0.345495
1494	0.121865
1506	0.0259595
1518	0.0164049
1530	0.0140614
1542	0.00820247
1554	0.0247877
1566	0.0999619
1578	0.127814
1590	0.0877033
1602	0.0647184
1614	0.01974
1626	0.00721096
1638	0.00378575
1650	0.00423644
1662	0.00784192
1674	0.0182077
1686	0.0148726
1698	0.0090137
1710	0.0102756
1722	0.00721096
1734	0.00333507
1746	0.00721096
1758	0.00612932
1770	0.00982493
1782	0.0207315
1794	0.0158641
1806	0.00928411
1818	0.0162247
1830	0.0123488
1842	0.0048674
1854	0.00549836
1866	0.0104559
1878	0.0109967
1890	0.0128896
1902	0.0260496
1914	0.0210921
1926	0.0100052
1938	0.0204611
1950	0.017757
1962	0.0041463
1974	0.00297452
1986	0.0041463
1998	0.0041463
2010	0.00351534
2022	0.00297452
2034	0.00234356
2046	0.00225342
2058	0.00279425
2070	0.00468712
2082	0.00342521
2094	0.00288438
2106	0.00225342
2118	0.00216329
2130	0.00288438
2142	0.00216329
2154	0.00198301
2166	0.00189288
2178	0.00324493
2190	0.00369562
2202	0.00279425
2214	0.00198301
2226	0.00207315
2238	0.00153233
2250	0.00324493
2262	0.00288438
2274	0.00351534
2286	0.00369562
2298	0.00306466
2310	0.00558849
2322	0.00784192
2334	0.00504767
2346	0.00198301
2358	0.00297452
2370	0.00261397
2382	0.00225342
2394	0.00225342
2406	0.00360548
2418	0.00477726
2430	0.00450685
2442	0.00360548
2454	0.00234356
2466	0.00225342
2478	0.00225342
2490	0.00144219
2502	0.00180274
2514	0.00126192
2526	0.00234356
2538	0.00306466
2550	0.00540822
2562	0.00450685
2574	0.00279425
2586	0.00432658
2598	0.00676027
2610	0.00513781
2622	0.00207315
2634	0.00207315
2646	0.00135206
2658	0.000721096
2670	0.000450685
2682	0.00090137
2694	0.00090137
2706	0.000540822
2718	0.000450685
2730	0.00162247
2742	0.00513781
2754	0.00712082
2766	0.00306466
2778	0.00180274
2790	0.00135206
2802	0.00261397
2814	0.00468712
2826	0.00757151
2838	0.0121685
2850	0.0205512
2862	0.0341619
2874	0.0475923
2886	0.0453389
2898	0.0366858
2910	0.0455192
2922	0.0735518
2934	0.126192
2946	0.127003
2958	0.0902271
2970	0.0995112
2982	0.120062
2994	0.109877
3006	0.063817
3018	0.0987
3030	0.105911
3042	0.0704871
3054	0.108705
3066	0.21083
3078	0.268158
3090	0.126642
3102	0.0522795
3114	0.0176669
3126	0.0116277
3138	0.0133403
3150	0.00964466
3162	0.00576877
3174	0.00351534
3186	0.00396603
3198	0.00405616
3210	0.00324493
3222	0.00342521
3234	0.00162247
3246	0.00234356
3258	0.00198301
3270	0.00252384
3282	0.000811233
3294	0.00180274
3306	0.00162247
3318	0.00270411
3330	0.00180274
3342	0.00198301
3354	0.00252384
3366	0.00234356
3378	0.00270411
3390	0.00270411
3402	0.00198301
3414	0.00279425
3426	0.00288438
3438	0.00360548
3450	0.00225342
3462	0.00252384
3474	0.00297452
3486	0.00279425
3498	0.00225342
3510	0.00180274
3522	0.00261397
3534	0.00180274
3546	0.00189288
3558	0.00135206
3570	0.00135206
3582	0.00270411
3594	0.00279425
3606	0.00225342
3618	0.00297452
3630	0.000270411
3642	0.00297452
3654	0.00144219
3666	0.00396603
3678	0.000991507
3690	0.00225342
3702	0.00279425
3714	0.00135206
3726	0.00333507
3738	0.00198301
3750	0.00207315
3762	0.00432658
3774	0.00558849
3786	0.00468712
3798	0.00396603
3810	0.00396603
3822	0.00405616
3834	0.00297452
3846	0.00639973
3858	0.00531808
3870	0.00658
3882	0.00603918
3894	0.00396603
3906	0.00378575
3918	0.00306466
3930	0.0041463
3942	0.0058589
3954	0.00180274
3966	0.00225342
