Infrared Spectrum: Phenol, 2-methyl-
Formula: C 7 H 8 O
CAS: 95-48-7
Origin: Sadtler Research Labs Under US-EPA Contract
1/CM	ABSORBANCE
450	0.0136428
462	0.0060164
474	0.00305057
486	0.00593166
498	0.0177102
510	0.0433859
522	0.0570287
534	0.0483007
546	0.0120328
558	0.0144055
570	0.0214387
582	0.0215235
594	0.0157613
606	0.012287
618	0.0114396
630	0.00838906
642	0.00449111
654	0.00499954
666	0.00567745
678	0.014236
690	0.0451654
702	0.0705868
714	0.0804164
726	0.185576
738	0.429537
750	0.84738
762	0.304464
774	0.0504191
786	0.0159307
798	0.0170323
810	0.0198287
822	0.0411827
834	0.152952
846	0.156765
858	0.0705868
870	0.0172866
882	0.0130497
894	0.00906697
906	0.0131344
918	0.0199134
930	0.028133
942	0.0178797
954	0.0171171
966	0.0287262
978	0.0495717
990	0.0544018
1002	0.0378779
1014	0.0318615
1026	0.0667735
1038	0.113125
1050	0.0897375
1062	0.0458433
1074	0.0560966
1086	0.140665
1098	0.377931
1110	0.362509
1122	0.115837
1134	0.0775353
1146	0.186254
1158	0.38827
1170	0.404454
1182	0.351493
1194	0.399709
1206	0.605029
1218	0.597911
1230	0.266332
1242	0.330393
1254	0.518851
1266	0.399201
1278	0.097364
1290	0.102364
1302	0.138292
1314	0.296922
1326	0.326665
1338	0.153969
1350	0.026523
1362	0.0232182
1374	0.0348273
1386	0.0451654
1398	0.0346578
1410	0.0184729
1422	0.0294888
1434	0.0911781
1446	0.202609
1458	0.263959
1470	0.259298
1482	0.341409
1494	0.430639
1506	0.441231
1518	0.255909
1530	0.054656
1542	0.0303362
1554	0.0332173
1566	0.0571134
1578	0.157613
1590	0.268535
1602	0.276415
1614	0.157443
1626	0.0641467
1638	0.0211845
1650	0.0111854
1662	0.0153376
1674	0.0200829
1686	0.0185576
1698	0.0133886
1710	0.00898223
1722	0.00821959
1734	0.0131344
1746	0.0161002
1758	0.0187271
1770	0.0232182
1782	0.0171171
1794	0.0139818
1806	0.0116091
1818	0.00728747
1830	0.00652483
1842	0.0077959
1854	0.00788063
1866	0.010677
1878	0.0185576
1890	0.022964
1902	0.0147444
1914	0.013897
1926	0.0156765
1938	0.00991435
1950	0.00279635
1962	0.00288109
1974	0.00144055
1986	0.00279635
1998	0.00533849
2010	0.00483007
2022	0.00194897
2034	0.00254214
2046	0.00347426
2058	0.00364373
2070	0.00322004
2082	0.00364373
2094	0.00525376
2106	0.00389795
2118	0.00101686
2130	0.00084738
2142	0.00084738
2154	0
2166	0.000338952
2178	0.00084738
2190	0.00152528
2202	0.00135581
2214	0.00144055
2226	0.00203371
2238	0.00254214
2250	0.00330478
2262	0.00347426
2274	0.00288109
2286	0.00279635
2298	0.0042369
2310	0.00677904
2322	0.00821959
2334	0.00652483
2346	0.00703325
2358	0.00559271
2370	0.00364373
2382	0.00474533
2394	0.00610114
2406	0.00788063
2418	0.0100838
2430	0.0107617
2442	0.0108465
2454	0.010338
2466	0.0104228
2478	0.00830432
2490	0.00872801
2502	0.00949066
2514	0.00838906
2526	0.00584692
2538	0.00449111
2550	0.0042369
2562	0.00389795
2574	0.00449111
2586	0.00525376
2598	0.00576218
2610	0.00686378
2622	0.00644009
2634	0.00593166
2646	0.0049148
2658	0.00279635
2670	0.00279635
2682	0.00279635
2694	0.00474533
2706	0.00499954
2718	0.00525376
2730	0.00694852
2742	0.012626
2754	0.0128802
2766	0.00720273
2778	0.00567745
2790	0.00576218
2802	0.0066943
2814	0.00957539
2826	0.012626
2838	0.017795
2850	0.0302515
2862	0.0691462
2874	0.102448
2886	0.102025
2898	0.0914323
2910	0.10016
2922	0.139563
2934	0.178035
2946	0.162443
2958	0.112702
2970	0.101855
2982	0.111176
2994	0.0921102
3006	0.0738068
3018	0.125921
3030	0.221929
3042	0.249045
3054	0.20549
3066	0.199389
3078	0.199812
3090	0.145749
3102	0.0753321
3114	0.040759
3126	0.0218624
3138	0.0122023
3150	0.00593166
3162	0.00559271
3174	0.00499954
3186	0.0042369
3198	0.00432164
3210	0.00406742
3222	0.00313531
3234	0.00432164
3246	0.00398269
3258	0.00237266
3270	0.00228793
3282	0.0042369
3294	0.00279635
3306	0.00262688
3318	0.00305057
3330	0.00432164
3342	0.00703325
3354	0.00771116
3366	0.00762642
3378	0.00728747
3390	0.00652483
3402	0.0042369
3414	0.00644009
3426	0.00559271
3438	0.00584692
3450	0.00415216
3462	0.0049148
3474	0.00440638
3486	0.00389795
3498	0.00449111
3510	0.0017795
3522	0.00203371
3534	0.00194897
3546	0.0042369
3558	0.00398269
3570	0.00550797
3582	0.00771116
3594	0.00737221
3606	0.0109312
3618	0.0176255
3630	0.0710952
3642	0.28794
3654	0.4575
3666	0.339291
3678	0.0675362
3690	0.0111854
3702	0.003559
3714	0.00237266
3726	0.00483007
3738	0.00610114
3750	0.00483007
3762	0.00398269
3774	0.00449111
3786	0.00338952
3798	0.0024574
3810	0.0042369
3822	0.0049148
3834	0.00499954
3846	0.0060164
3858	0.00584692
3870	0.00652483
3882	0.00644009
3894	0.00720273
3906	0.00525376
3918	0.00771116
3930	0.00974487
3942	0.00940592
3954	0.00745694
3966	0.00720273
