Infrared Spectrum: Phenol, 2-chloro-
Formula: C 6 H 5 Cl O
CAS: 95-57-8
Origin: Sadtler Research Labs Under US-EPA Contract
1/CM	ABSORBANCE
450	0
462	0.00887738
474	0.0335368
486	0.121324
498	0.130818
510	0.0450034
522	0.0213304
534	0.0256458
546	0.0353862
558	0.0685531
570	0.0495654
582	0.0194809
594	0.0115899
606	0.0115899
618	0.0141792
630	0.0180014
642	0.0217003
654	0.026139
666	0.102337
678	0.234141
690	0.158437
702	0.0736083
714	0.0684298
726	0.168177
738	0.446089
750	0.652241
762	0.323161
774	0.0849516
786	0.0605388
798	0.0221935
810	0.0272486
822	0.0831022
834	0.132298
846	0.11479
858	0.029468
870	0.0187411
882	0.0152888
894	0.0115899
906	0.012453
918	0.0197275
930	0.0469762
942	0.0293447
954	0.0167684
966	0.0138093
978	0.0135627
990	0.0173849
1002	0.0233031
1014	0.0885272
1026	0.255225
1038	0.2371
1050	0.250663
1062	0.254362
1074	0.057703
1086	0.0293447
1098	0.0376056
1110	0.0644843
1122	0.152148
1134	0.14808
1146	0.117872
1158	0.153751
1170	0.214167
1182	0.350903
1194	1.01449
1206	1.0664
1218	0.330066
1230	0.113187
1242	0.318969
1254	0.560262
1266	0.403674
1278	0.256704
1290	0.478639
1302	0.328217
1314	0.0535109
1326	0.107762
1338	0.233894
1350	0.204796
1362	0.0405647
1374	0.0318106
1386	0.049812
1398	0.0318106
1410	0.0155354
1422	0.0218236
1434	0.0175082
1446	0.049812
1458	0.154491
1470	0.507244
1482	1.21287
1494	0.942606
1506	0.217249
1518	0.103569
1530	0.0212071
1542	0.0213304
1554	0.0287282
1566	0.072252
1578	0.246841
1590	0.440294
1602	0.381974
1614	0.162382
1626	0.0470995
1638	0.0171383
1650	0.00604155
1662	0.0181247
1674	0.0221935
1686	0.0199741
1698	0.0141792
1710	0.0119598
1722	0.0120831
1734	0.00887738
1746	0.00998706
1758	0.0194809
1770	0.0320572
1782	0.0276185
1794	0.0128229
1806	0.0172616
1818	0.0165218
1830	0.00887738
1842	0.0119598
1854	0.0177548
1866	0.0161519
1878	0.0156587
1890	0.0289748
1902	0.0289748
1914	0.0163985
1926	0.0267554
1938	0.0252759
1950	0.0103569
1962	0.0103569
1974	0.0110967
1986	0.0108501
1998	0.0103569
2010	0.00789101
2022	0.0082609
2034	0.0101104
2046	0.0104802
2058	0.00924727
2070	0.0102337
2082	0.0126996
2094	0.0126996
2106	0.01122
2118	0.0131928
2130	0.0126996
2142	0.00949387
2154	0.0101104
2166	0.0106035
2178	0.00937057
2190	0.0081376
2202	0.00764441
2214	0.00739782
2226	0.0083842
2238	0.00949387
2250	0.0106035
2262	0.0107268
2274	0.012453
2286	0.012453
2298	0.0149189
2310	0.021577
2322	0.0199741
2334	0.0130695
2346	0.01122
2358	0.0139326
2370	0.00937057
2382	0.0107268
2394	0.013686
2406	0.0146723
2418	0.0134394
2430	0.0152888
2442	0.0152888
2454	0.0133161
2466	0.0126996
2478	0.0154121
2490	0.0208372
2502	0.0198508
2514	0.0150422
2526	0.0183713
2538	0.0233031
2550	0.0173849
2562	0.00875409
2574	0.00739782
2586	0.00776771
2598	0.0083842
2610	0.00937057
2622	0.0126996
2634	0.0149189
2646	0.0126996
2658	0.0125763
2670	0.0141792
2682	0.0131928
2694	0.0101104
2706	0.00776771
2718	0.00850749
2730	0.00937057
2742	0.00924727
2754	0.00937057
2766	0.00974046
2778	0.00863079
2790	0.0081376
2802	0.00776771
2814	0.00776771
2826	0.00752112
2838	0.00900068
2850	0.00900068
2862	0.00875409
2874	0.00974046
2886	0.00900068
2898	0.00912398
2910	0.0102337
2922	0.0110967
2934	0.0109734
2946	0.00924727
2958	0.00998706
2970	0.00912398
2982	0.00924727
2994	0.00900068
3006	0.0115899
3018	0.0204673
3030	0.038592
3042	0.0786635
3054	0.0976512
3066	0.0824857
3078	0.134147
3090	0.166944
3102	0.0891437
3114	0.0252759
3126	0.0117132
3138	0.0101104
3150	0.00961717
3162	0.0122064
3174	0.0146723
3186	0.0117132
3198	0.0119598
3210	0.0110967
3222	0.0107268
3234	0.00998706
3246	0.00912398
3258	0.00875409
3270	0.00776771
3282	0.00739782
3294	0.0082609
3306	0.0104802
3318	0.014549
3330	0.0165218
3342	0.0122064
3354	0.00924727
3366	0.0106035
3378	0.0109734
3390	0.0104802
3402	0.0101104
3414	0.0101104
3426	0.0109734
3438	0.00900068
3450	0.0117132
3462	0.00887738
3474	0.00998706
3486	0.00974046
3498	0.00986376
3510	0.013686
3522	0.0139326
3534	0.014549
3546	0.0241662
3558	0.071389
3570	0.633993
3582	0.92855
3594	0.324764
3606	0.039455
3618	0.0202207
3630	0.0224401
3642	0.0474693
3654	0.0605388
3666	0.0441403
3678	0.0161519
3690	0.0161519
3702	0.0139326
3714	0.0149189
3726	0.0146723
3738	0.0152888
3750	0.0154121
3762	0.0139326
3774	0.0128229
3786	0.0118365
3798	0.0128229
3810	0.0133161
3822	0.0198508
3834	0.0223168
3846	0.0147956
3858	0.0155354
3870	0.0167684
3882	0.0186178
3894	0.0208372
3906	0.0210838
3918	0.0200974
3930	0.0193576
3942	0.0186178
3954	0.0160286
3966	0.0150422
