Infrared Spectrum: Phenol, 2-bromo-
Formula: C 6 H 5 Br O
CAS: 95-56-7
Origin: Sadtler Research Labs Under US-EPA Contract
1/CM	ABSORBANCE
450	0.0253209
462	0.0585631
474	0.0751503
486	0.016181
498	0.00534854
510	0.000880139
522	0.00494232
534	0.00880139
546	0.0314819
558	0.0281644
570	0.00697341
582	0.00358826
594	0.00358826
606	0.00182798
618	0.00243731
630	0.00521313
642	0.0236283
654	0.110017
666	0.0699372
678	0.00954612
690	0.0185506
702	0.0305341
714	0.0321589
726	0.0593755
738	0.260927
750	0.405609
762	0.153212
774	0.0524021
786	0.0331745
798	0.00744733
810	0.0113064
822	0.0637085
834	0.0834778
846	0.0444809
858	0.0144207
870	0.00968153
882	0.00792125
894	0.00426529
906	0.0023696
918	0.0067703
930	0.0227482
942	0.0182798
954	0.00913991
966	0.00467151
978	0.00690571
990	0.00825977
1002	0.00968153
1014	0.121798
1026	0.244272
1038	0.117939
1050	0.0788063
1062	0.00961383
1074	0.00792125
1086	0.0116449
1098	0.0243731
1110	0.050371
1122	0.0492201
1134	0.023019
1146	0.0586308
1158	0.0868629
1170	0.113335
1182	0.199115
1194	0.634106
1206	0.632481
1218	0.12911
1230	0.0496263
1242	0.176366
1254	0.251043
1266	0.109679
1278	0.126875
1290	0.24935
1302	0.129245
1314	0.0315496
1326	0.0635731
1338	0.147389
1350	0.106361
1362	0.0140822
1374	0.0220035
1386	0.0261334
1398	0.00981694
1410	0.00616097
1422	0.00385907
1434	0.0089368
1446	0.0322266
1458	0.106023
1470	0.481098
1482	0.67703
1494	0.233846
1506	0.093227
1518	0.0209202
1530	0.00358826
1542	0.00744733
1554	0.0190245
1566	0.0619482
1578	0.135
1590	0.189839
1602	0.185506
1614	0.0774522
1626	0.00880139
1638	0.00162487
1650	0.00101555
1662	0.0044684
1674	0.0125928
1686	0.00744733
1698	0.00480691
1710	0.00297893
1722	0.00182798
1734	0.0023696
1746	0.00507772
1758	0.00629638
1770	0.0138791
1782	0.0110356
1794	0.00318204
1806	0.00616097
1818	0.00501002
1830	0.00128636
1842	0.00176028
1854	0.0046038
1866	0.0044684
1878	0.00277582
1890	0.0111033
1902	0.0120511
1914	0.00379137
1926	0.01002
1938	0.0117803
1950	0.00142176
1962	0.000812436
1974	0.00115095
1986	0.00148947
1998	0.00101555
2010	0.000609327
2022	0.00142176
2034	0.0023696
2046	0.00135406
2058	0.00189568
2070	0.00318204
2082	0.00304663
2094	0.00169257
2106	0.00243731
2118	0.00352056
2130	0.00270812
2142	0.00142176
2154	0.000609327
2166	0.000541624
2178	0.000406218
2190	6.7703e-05
2202	0.000338515
2214	0.000406218
2226	0.00101555
2238	0.00148947
2250	0.00176028
2262	0.00148947
2274	0.00169257
2286	0.00209879
2298	0.00419759
2310	0.00602557
2322	0.0021665
2334	0
2346	0
2358	0
2370	0
2382	0.00176028
2394	0.00324974
2406	0.00318204
2418	0.00345285
2430	0.00406218
2442	0.00419759
2454	0.00372367
2466	0.00331745
2478	0.00487462
2490	0.00690571
2502	0.00582246
2514	0.00467151
2526	0.00697341
2538	0.00886909
2550	0.00501002
2562	0.000947842
2574	0.000880139
2586	0.00108325
2598	0.00115095
2610	0.00277582
2622	0.0046038
2634	0.00412988
2646	0.00169257
2658	0.0023019
2670	0.00372367
2682	0.00304663
2694	0.00115095
2706	0.000744733
2718	0.00121865
2730	0.00142176
2742	0.00196339
2754	0.0022342
2766	0.0022342
2778	0.00176028
2790	0.00176028
2802	0.000880139
2814	0.000406218
2826	0.00067703
2838	0.00115095
2850	0.00148947
2862	0.00142176
2874	0.00101555
2886	0.000812436
2898	0.000609327
2910	0.00176028
2922	0.00142176
2934	0.000812436
2946	0.000744733
2958	0.000473921
2970	0.000135406
2982	0.00067703
2994	0.000541624
3006	0.0022342
3018	0.00724422
3030	0.0179413
3042	0.0357472
3054	0.0360857
3066	0.0290446
3078	0.0842902
3090	0.109002
3102	0.0280967
3114	0.00629638
3126	0.00115095
3138	0.00155717
3150	0.00243731
3162	0.0021665
3174	0.00189568
3186	0.00162487
3198	0.00176028
3210	0.00101555
3222	0.00108325
3234	0.000947842
3246	0.00115095
3258	0.00108325
3270	0.00067703
3282	0.00067703
3294	0.00067703
3306	0.000473921
3318	0.00115095
3330	0.00108325
3342	0.0067026
3354	0.00731192
3366	0.00250501
3378	0.00101555
3390	0.000812436
3402	0.000812436
3414	0.000880139
3426	0.000541624
3438	0.00067703
3450	0.000744733
3462	0.000947842
3474	0.00101555
3486	0.000947842
3498	0.0021665
3510	0.00297893
3522	0.0045361
3534	0.0117803
3546	0.133646
3558	0.577168
3570	0.282051
3582	0.0404187
3594	0.00968153
3606	0.0023019
3618	0.00162487
3630	0.00284353
3642	0.0128636
3654	0.015504
3666	0.00717652
3678	0.000947842
3690	0.000203109
3702	0.000880139
3714	0.000812436
3726	0.000203109
3738	0.000203109
3750	0.00101555
3762	0.00372367
3774	0.00392677
3786	0.00148947
3798	0
3810	0.000880139
3822	0
3834	0
3846	0.00067703
3858	0.000541624
3870	0
3882	0.000406218
3894	0.00135406
3906	0.00128636
3918	0.00176028
3930	0
3942	0.00128636
3954	0.000609327
3966	0.00257271
