Infrared Spectrum: 1,2-Benzenediamine
Formula: C 6 H 8 N 2
CAS: 95-54-5
Origin: Sadtler Research Labs Under US-EPA Contract
1/CM	ABSORBANCE
450	0.0597991
462	0.0473369
474	0.0426032
486	0.0656921
498	0.0704258
510	0.0844336
522	0.113415
534	0.133026
546	0.14916
558	0.139499
570	0.12153
582	0.147614
594	0.173118
606	0.209635
618	0.27552
630	0.32421
642	0.38826
654	0.448059
666	0.444774
678	0.394056
690	0.330972
702	0.262962
714	0.327494
726	0.544085
738	0.96606
750	0.624558
762	0.312714
774	0.161912
786	0.131384
798	0.120178
810	0.105301
822	0.0930316
834	0.0895538
846	0.10018
858	0.104721
870	0.0873318
882	0.0564179
894	0.0528435
906	0.0562247
918	0.0593161
930	0.0467573
942	0.0304309
954	0.022799
966	0.0206737
978	0.019128
990	0.0157468
1002	0.0142977
1014	0.0133316
1026	0.0319766
1038	0.0466607
1050	0.0477234
1062	0.0445354
1074	0.0484962
1086	0.0453082
1098	0.0472403
1110	0.0449218
1122	0.0398983
1134	0.0464675
1146	0.0602821
1158	0.0512012
1170	0.0284988
1182	0.022316
1194	0.0246345
1206	0.0379662
1218	0.0770916
1230	0.146841
1242	0.187899
1254	0.30798
1266	0.572391
1278	0.577897
1290	0.233497
1302	0.0538095
1314	0.0197076
1326	0.0105301
1338	0.000869454
1350	0.00193212
1362	0
1374	0.00821151
1386	0.0144909
1398	0.00521672
1410	0.00569975
1422	0.00869454
1434	0.0118825
1446	0.0464675
1458	0.0759323
1470	0.101823
1482	0.20664
1494	0.470858
1506	0.68996
1518	0.541766
1530	0.219682
1542	0.0686869
1554	0.0627939
1566	0.110614
1578	0.204225
1590	0.334933
1602	0.380338
1614	0.539738
1626	0.671991
1638	0.442166
1650	0.156019
1662	0.0725511
1674	0.0288852
1686	0.0165196
1698	0.015457
1710	0.0184517
1722	0.0209635
1734	0.0248277
1746	0.0305275
1758	0.0305275
1770	0.0268565
1782	0.025987
1794	0.0230888
1806	0.0256006
1818	0.0244413
1830	0.0204805
1842	0.0240549
1854	0.0315902
1866	0.0299479
1878	0.0254074
1890	0.0272429
1902	0.0308173
1914	0.0230888
1926	0.015457
1938	0.0143943
1950	0.0137181
1962	0.0130418
1974	0.0139113
1986	0.0138147
1998	0.0143943
2010	0.016906
2022	0.0173891
2034	0.0172925
2046	0.0143943
2058	0.012269
2070	0.0124622
2082	0.0125588
2094	0.0121724
2106	0.012269
2118	0.012269
2130	0.0121724
2142	0.0131384
2154	0.0129452
2166	0.0124622
2178	0.0126554
2190	0.0124622
2202	0.012752
2214	0.0129452
2226	0.0129452
2238	0.0138147
2250	0.0153604
2262	0.0150705
2274	0.0142011
2286	0.0128486
2298	0.012752
2310	0.013235
2322	0.0126554
2334	0.0112063
2346	0.0143943
2358	0.013235
2370	0.0130418
2382	0.0139113
2394	0.0131384
2406	0.013235
2418	0.0142011
2430	0.0145875
2442	0.0149739
2454	0.0165196
2466	0.0167128
2478	0.0178721
2490	0.0157468
2502	0.0129452
2514	0.0130418
2526	0.013235
2538	0.0138147
2550	0.0143943
2562	0.0143943
2574	0.0145875
2586	0.0167128
2598	0.0176789
2610	0.0188382
2622	0.0197076
2634	0.0208669
2646	0.0206737
2658	0.019611
2670	0.0176789
2682	0.0158434
2694	0.0152637
2706	0.0142011
2718	0.0145875
2730	0.0142011
2742	0.0140079
2754	0.0137181
2766	0.0138147
2778	0.0138147
2790	0.0131384
2802	0.0131384
2814	0.0129452
2826	0.0145875
2838	0.0158434
2850	0.0179687
2862	0.0195144
2874	0.0188382
2886	0.0190314
2898	0.0204805
2910	0.0212533
2922	0.021833
2934	0.0220262
2946	0.0203839
2958	0.019128
2970	0.0192246
2982	0.0201907
2994	0.0305275
3006	0.0776712
3018	0.163264
3030	0.248374
3042	0.227217
3054	0.197076
3066	0.202679
3078	0.201424
3090	0.130901
3102	0.0696529
3114	0.0408643
3126	0.0271463
3138	0.0219296
3150	0.0182585
3162	0.0166162
3174	0.0175823
3186	0.0184517
3198	0.0201907
3210	0.0206737
3222	0.0197076
3234	0.0199008
3246	0.0185484
3258	0.0171959
3270	0.0170027
3282	0.0163264
3294	0.0170993
3306	0.0178721
3318	0.0170027
3330	0.018645
3342	0.0239583
3354	0.0520706
3366	0.0797966
3378	0.0766086
3390	0.048303
3402	0.0348748
3414	0.032846
3426	0.0393186
3438	0.0759323
3450	0.122786
3462	0.127327
3474	0.0829846
3486	0.0542926
3498	0.0404779
3510	0.0329426
3522	0.0266633
3534	0.0237651
3546	0.0209635
3558	0.0201907
3570	0.018645
3582	0.0177755
3594	0.0173891
3606	0.0173891
3618	0.016423
3630	0.0140079
3642	0.0176789
3654	0.0172925
3666	0.0158434
3678	0.0148773
3690	0.0146841
3702	0.0120757
3714	0.012269
3726	0.0120757
3738	0.0120757
3750	0.00917757
3762	0.0126554
3774	0.0121724
3786	0.0146841
3798	0.0131384
3810	0.0120757
3822	0.00956399
3834	0.0112063
3846	0.0121724
3858	0.0126554
3870	0.0131384
3882	0.0118825
3894	0.01594
3906	0.0142977
3918	0.0180653
3930	0.013235
3942	0.0133316
3954	0.0150705
3966	0.0117859
