Infrared Spectrum: Benzenamine, 2-methyl-
Formula: C 7 H 9 N
CAS: 95-53-4
Origin: Sadtler Research Labs Under US-EPA Contract
1/CM	ABSORBANCE
450	0.0483937
462	0.0276417
474	0.0182618
486	0.0200049
498	0.0293848
510	0.0459034
522	0.0352784
534	0.0182618
546	0.020752
558	0.031128
570	0.0337843
582	0.0361915
594	0.0355274
606	0.0329542
618	0.0558644
630	0.0886525
642	0.154312
654	0.22462
666	0.228023
678	0.183448
690	0.142691
702	0.134473
714	0.19042
726	0.314019
738	0.512076
750	0.569601
762	0.319332
774	0.0881545
786	0.0486427
798	0.0377686
810	0.0399268
822	0.0408399
834	0.0482276
846	0.0448243
858	0.0233252
870	0.00871584
882	0.00406739
894	0.000747072
906	0.00332032
918	0.00697267
930	0.010791
942	0.00614259
954	0.00473146
966	0.0161866
978	0.0431642
990	0.041089
1002	0.0153565
1014	0.00439942
1026	0.0221631
1038	0.0496388
1050	0.0566945
1062	0.0644972
1074	0.0704738
1086	0.0556154
1098	0.0498048
1110	0.0385987
1122	0.0281397
1134	0.0487257
1146	0.0777785
1158	0.0655763
1170	0.020752
1182	0.00348634
1194	0.00664064
1206	0.00962893
1218	0.010127
1230	0.0185938
1242	0.062173
1254	0.243047
1266	0.393541
1278	0.308458
1290	0.168174
1302	0.183863
1314	0.110152
1326	0.0435792
1338	0.00763674
1350	0.0051465
1362	0.0114551
1374	0.0241553
1386	0.0278907
1398	0.0155225
1410	0.0072217
1422	0.0200879
1434	0.0677345
1446	0.152901
1458	0.23292
1470	0.274756
1482	0.326138
1494	0.455299
1506	0.542623
1518	0.36316
1530	0.0541212
1542	0.041006
1554	0.0434962
1566	0.0749562
1578	0.152154
1590	0.214659
1602	0.262637
1614	0.518053
1626	0.798952
1638	0.552667
1650	0.209512
1662	0.0849172
1674	0.0438282
1686	0.0326221
1698	0.0261475
1710	0.0196729
1722	0.0222461
1734	0.0190918
1746	0.0187598
1758	0.0244044
1770	0.0214991
1782	0.0140284
1794	0.0157715
1806	0.0123682
1818	0.00614259
1830	0.00755373
1842	0.010293
1854	0.0118701
1866	0.0166846
1878	0.0278077
1890	0.0279737
1902	0.0169336
1914	0.0234083
1926	0.0199219
1938	0.00630861
1950	0.00323731
1962	0.00290528
1974	0.00174317
1986	0.00265626
1998	0.00398438
2010	0.0031543
2022	0.00282227
2034	0.00356934
2046	0.00390138
2058	0.00332032
2070	0.00282227
2082	0.00257325
2094	0.00340333
2106	0.00439942
2118	0.00398438
2130	0.00240723
2142	0.00157715
2154	0.000747072
2166	0.000747072
2178	0.000747072
2190	0.000996096
2202	0.00124512
2214	0.00199219
2226	0.00215821
2238	0.00215821
2250	0.00116211
2262	0.000249024
2274	8.3008e-05
2286	0.00132813
2298	0.00257325
2310	0.00398438
2322	0.00448243
2334	0.0041504
2346	0.00431642
2358	0.0030713
2370	0.00406739
2382	0.00257325
2394	0.000747072
2406	0.000996096
2418	0.00199219
2430	0.0031543
2442	0.00406739
2454	0.00464845
2466	0.00614259
2478	0.00398438
2490	0.00149414
2502	0.00124512
2514	0.00182618
2526	0.0030713
2538	0.00332032
2550	0.00224122
2562	0.00182618
2574	0.00373536
2586	0.00464845
2598	0.00738771
2610	0.0112891
2622	0.00996096
2634	0.00456544
2646	0.00290528
2658	0.00257325
2670	0.00265626
2682	0.00249024
2694	0.00249024
2706	0.0030713
2718	0.00406739
2730	0.010293
2742	0.0188428
2754	0.0169336
2766	0.00747072
2778	0.00680666
2790	0.0073047
2802	0.0092969
2814	0.0132813
2826	0.0164356
2838	0.0229102
2850	0.0431642
2862	0.114136
2874	0.169502
2886	0.170664
2898	0.149497
2910	0.157217
2922	0.197808
2934	0.215821
2946	0.192579
2958	0.123267
2970	0.12252
2982	0.131651
2994	0.108823
3006	0.105337
3018	0.23981
3030	0.333194
3042	0.296173
3054	0.219722
3066	0.248194
3078	0.244874
3090	0.172242
3102	0.0913088
3114	0.0472316
3126	0.0293848
3138	0.0145264
3150	0.00813478
3162	0.00688966
3174	0.00589357
3186	0.00680666
3198	0.00854982
3210	0.010293
3222	0.010127
3234	0.00805178
3246	0.00597658
3258	0.00365235
3270	0.00249024
3282	0.000913088
3294	0.00141114
3306	0.00182618
3318	0.000913088
3330	0.00124512
3342	0.00157715
3354	0.00199219
3366	0.00298829
3378	0.00539552
3390	0.0200049
3402	0.0575245
3414	0.0748732
3426	0.0464015
3438	0.0162696
3450	0.0112061
3462	0.0153565
3474	0.0425831
3486	0.0865773
3498	0.0968703
3510	0.0567775
3522	0.0215821
3534	0.00913088
3546	0.00564454
3558	0.00373536
3570	0.00340333
3582	0.00149414
3594	0.00423341
3606	0.00282227
3618	0.00340333
3630	0.00348634
3642	0.00232422
3654	0.00323731
3666	0.000664064
3678	0.00539552
3690	0.00348634
3702	0.00190918
3714	0.00340333
3726	0.00332032
3738	0.00489747
3750	0.00174317
3762	0.00348634
3774	0.00390138
3786	0.00141114
3798	0.00249024
3810	0
3822	0.00356934
3834	0.00232422
3846	0.00439942
3858	0.00705568
3870	0.010293
3882	0.00846682
3894	0.00954592
3906	0.00846682
3918	0.00813478
3930	0.00589357
3942	0.00431642
3954	0.00423341
3966	0.00423341
