Infrared Spectrum: Phenol, 2-amino-
Formula: C 6 H 7 N O
CAS: 95-55-6
Origin: Sadtler Research Labs Under US-EPA Contract
1/CM	ABSORBANCE
450	0.0343139
462	0.0130636
474	0.0102767
486	0.0104509
498	0.0118444
510	0.0179407
522	0.0345751
534	0.0598315
546	0.0721984
558	0.0578284
570	0.0476388
582	0.0390168
594	0.0279562
606	0.0286529
618	0.0504257
630	0.0778594
642	0.106861
654	0.108428
666	0.0849137
678	0.0863072
690	0.102854
702	0.125759
714	0.246293
726	0.448693
738	0.841212
750	0.600928
762	0.347058
774	0.151625
786	0.058351
798	0.0438939
810	0.0376233
822	0.0362299
834	0.0474646
846	0.0848266
858	0.115047
870	0.0999805
882	0.0367524
894	0.0181149
906	0.0337042
918	0.0352719
930	0.0228178
942	0.0171569
954	0.00801237
966	0.00374491
978	0.00409328
990	0.00627055
1002	0.0117573
1014	0.0279562
1026	0.0582639
1038	0.0637506
1050	0.0472904
1062	0.0614862
1074	0.0812559
1086	0.0843041
1098	0.0988483
1110	0.164428
1122	0.342703
1134	0.407412
1146	0.377278
1158	0.42753
1170	0.499554
1182	0.419604
1194	0.308476
1206	0.290013
1218	0.341048
1230	0.416469
1242	0.421695
1254	0.434236
1266	0.607982
1278	0.740883
1290	0.498422
1302	0.189684
1314	0.15119
1326	0.17305
1338	0.155632
1350	0.0983257
1362	0.0806463
1374	0.0639248
1386	0.0570446
1398	0.045984
1410	0.0338784
1422	0.0326591
1434	0.0380588
1446	0.0731564
1458	0.127675
1470	0.161467
1482	0.285049
1494	0.60685
1506	0.857585
1518	0.664766
1530	0.332513
1542	0.099545
1554	0.0796883
1566	0.111476
1578	0.184894
1590	0.269285
1602	0.309783
1614	0.411592
1626	0.502167
1638	0.38921
1650	0.147881
1662	0.0656666
1674	0.0389297
1686	0.0276078
1698	0.0207277
1710	0.0213373
1722	0.0226437
1734	0.0213373
1746	0.0247338
1758	0.0260402
1770	0.0250822
1782	0.0227308
1794	0.0192471
1806	0.0195084
1818	0.0175924
1830	0.0156764
1842	0.0207277
1854	0.0235146
1866	0.0237758
1878	0.0233404
1890	0.0254306
1902	0.0253435
1914	0.0212502
1926	0.0157635
1938	0.0106251
1950	0.00827364
1962	0.00731564
1974	0.00748983
1986	0.0077511
1998	0.00801237
2010	0.00844783
2022	0.0104509
2034	0.011496
2046	0.00975419
2058	0.00653182
2070	0.00592219
2082	0.00661892
2094	0.00696728
2106	0.00635764
2118	0.00461582
2130	0.00348364
2142	0.00313528
2154	0.00330946
2166	0.003832
2178	0.00400619
2190	0.00444164
2202	0.0039191
2214	0.00357073
2226	0.00296109
2238	0.00339655
2250	0.00505128
2262	0.00627055
2274	0.00627055
2286	0.00557382
2298	0.00539964
2310	0.00513837
2322	0.0039191
2334	0.00505128
2346	0.00757692
2358	0.00731564
2370	0.0114089
2382	0.0101896
2394	0.00809946
2406	0.00818655
2418	0.00853492
2430	0.00844783
2442	0.0096671
2454	0.0118444
2466	0.0128895
2478	0.0128024
2490	0.0110606
2502	0.00766401
2514	0.0048771
2526	0.00461582
2538	0.00496419
2550	0.00548673
2562	0.00696728
2574	0.00714146
2586	0.0067931
2598	0.00766401
2610	0.00862201
2622	0.00809946
2634	0.00766401
2646	0.00757692
2658	0.00731564
2670	0.00548673
2682	0.00418037
2694	0.00330946
2706	0.00304818
2718	0.00304818
2730	0.00235146
2742	0.00200309
2754	0.001916
2766	0.00182891
2778	0.00148055
2790	0.000783819
2802	0.000522546
2814	8.7091e-05
2826	0.000348364
2838	0.00130636
2850	0.00200309
2862	0.00252564
2874	0.00339655
2886	0.00322237
2898	0.00365782
2910	0.00479
2922	0.00574801
2934	0.0058351
2946	0.00548673
2958	0.00566091
2970	0.00609637
2982	0.00670601
2994	0.0117573
3006	0.0327462
3018	0.0859588
3030	0.154151
3042	0.200571
3054	0.20179
3066	0.187507
3078	0.169392
3090	0.125498
3102	0.0635764
3114	0.032572
3126	0.0177666
3138	0.0102767
3150	0.00574801
3162	0.00522546
3174	0.0067931
3186	0.00879619
3198	0.0103638
3210	0.0103638
3222	0.0096671
3234	0.0077511
3246	0.00592219
3258	0.00418037
3270	0.00322237
3282	0.00278691
3294	0.00365782
3306	0.003832
3318	0.00548673
3330	0.00748983
3342	0.0127153
3354	0.0188117
3366	0.0281304
3378	0.0399748
3390	0.0566962
3402	0.0850879
3414	0.0980645
3426	0.0756821
3438	0.0481613
3450	0.0336171
3462	0.0366653
3474	0.0600928
3486	0.0979774
3498	0.127588
3510	0.147706
3522	0.136646
3534	0.104074
3546	0.0735919
3558	0.0563479
3570	0.0451131
3582	0.0395393
3594	0.0345751
3606	0.0289142
3618	0.0229049
3630	0.0252564
3642	0.0758563
3654	0.240894
3666	0.229746
3678	0.104945
3690	0.013412
3702	0.00513837
3714	0.000609637
3726	0
3738	0
3750	0
3762	0
3774	0
3786	0
3798	0
3810	0
3822	0
3834	0
3846	0
3858	0
3870	0
3882	0.00165473
3894	0.00357073
3906	0.000522546
3918	0.00304818
3930	0
3942	0
3954	0
3966	0
