Infrared Spectrum: 1,4-Dioxane, 2,3-dichloro-
Formula: C 4 H 6 Cl 2 O 2
CAS: 95-59-0
Origin: Sadtler Research Labs Under US-EPA Contract
1/CM	ABSORBANCE
450	0.023366
462	0.0157301
474	0.0262677
486	0.0328346
498	0.00397069
510	0.00305438
522	0.00626148
534	0.0284057
546	0.0435249
558	0.00931586
570	0.00519245
582	0.00442885
594	0.00748323
606	0.0186317
618	0.0267258
630	0.0427613
642	0.0678072
654	0.1657
666	0.436165
678	1.0727
690	1.13241
702	0.265273
714	0.151192
726	0.0474956
738	0.0400124
750	0.109347
762	0.295817
774	0.278865
786	0.0917841
798	0.0464266
810	0.0198535
822	0.0114539
834	0.0209225
846	0.0255041
858	0.0655165
870	0.275963
882	0.527797
894	0.490075
906	0.195328
918	0.0514663
930	0.0264204
942	0.0319183
954	0.0296275
966	0.0268785
978	0.0209225
990	0.0248932
1002	0.0281003
1014	0.0334455
1026	0.132102
1038	0.262219
1050	0.0601713
1062	0.0323764
1074	0.0404705
1086	0.0432195
1098	0.103391
1110	0.346519
1122	0.244809
1134	0.125077
1146	0.222512
1158	1.03467
1170	1.4406
1182	0.40608
1194	0.0340563
1206	0.0259622
1218	0.0366526
1230	0.0415396
1242	0.0398597
1254	0.0623094
1266	0.165853
1278	0.249696
1290	0.0974347
1302	0.0236714
1314	0.0161882
1326	0.0281003
1338	0.0598658
1350	0.0329873
1362	0.00824683
1374	0.0206171
1386	0.0452048
1398	0.0201589
1410	0.00458157
1422	0.00717779
1434	0.00931586
1446	0.0200062
1458	0.0725415
1470	0.065211
1482	0.0113012
1494	0.00259622
1506	0.000458157
1518	0.000763595
1530	0.00167991
1542	0.000305438
1554	0.00229079
1566	0.00366526
1578	0.00152719
1590	0.00198535
1602	0.00198535
1614	0.000152719
1626	0.00198535
1638	0.0032071
1650	0.00610876
1662	0.0056506
1674	0.00274894
1686	0.000610876
1698	0.000458157
1710	0.00305438
1722	0.00305438
1734	0.0032071
1746	0.00626148
1758	0.00778867
1770	0.00687236
1782	0.00855226
1794	0.0109958
1806	0.0096213
1818	0.00473429
1830	0.00259622
1842	0.00305438
1854	0.00412341
1866	0.00442885
1878	0.00534516
1890	0.00381797
1902	0.00305438
1914	0.00458157
1926	0.00839954
1938	0.00870498
1950	0.00595604
1962	0.00626148
1974	0.0160355
1986	0.0287112
1998	0.0247405
2010	0.0131338
2022	0.00763595
2034	0.00671964
2046	0.00503973
2058	0.00595604
2070	0.00580332
2082	0.00152719
2094	0.00259622
2106	0.0056506
2118	0.00442885
2130	0.00290166
2142	0.00305438
2154	0.0032071
2166	0.00305438
2178	0.00290166
2190	0.00488701
2202	0.00610876
2214	0.00717779
2226	0.00748323
2238	0.00671964
2250	0.00549788
2262	0.00580332
2274	0.00855226
2286	0.00717779
2298	0.00473429
2310	0.00167991
2322	0.00229079
2334	0.00458157
2346	0.00549788
2358	0.00229079
2370	0.00977402
2382	0.00931586
2394	0.00580332
2406	0.00366526
2418	0.00488701
2430	0.00442885
2442	0.00519245
2454	0.00580332
2466	0.00595604
2478	0.00503973
2490	0.00824683
2502	0.00778867
2514	0.00488701
2526	0.00381797
2538	0.00442885
2550	0.00534516
2562	0.00549788
2574	0.00442885
2586	0.00488701
2598	0.00442885
2610	0.00351254
2622	0.00381797
2634	0.0032071
2646	0.00335982
2658	0.00167991
2670	0.00183263
2682	0.00626148
2694	0.00580332
2706	0.00595604
2718	0.0088577
2730	0.00717779
2742	0.00610876
2754	0.0102322
2766	0.0129811
2778	0.00809411
2790	0.00671964
2802	0.00687236
2814	0.00595604
2826	0.00717779
2838	0.0096213
2850	0.0120648
2862	0.0140501
2874	0.0203116
2886	0.0615458
2898	0.0978929
2910	0.0548261
2922	0.0284057
2934	0.0487174
2946	0.132713
2958	0.113928
2970	0.0303911
2982	0.0956021
2994	0.256721
3006	0.138211
3018	0.0381797
3030	0.040776
3042	0.013592
3054	0.00687236
3066	0.00442885
3078	0.00458157
3090	0.00503973
3102	0.00442885
3114	0.00397069
3126	0.00534516
3138	0.00351254
3150	0.00366526
3162	0.00442885
3174	0.00335982
3186	0.00427613
3198	0.0024435
3210	0.00259622
3222	0.0032071
3234	0.00412341
3246	0.00335982
3258	0.00290166
3270	0.00335982
3282	0.00488701
3294	0.00381797
3306	0.00290166
3318	0.00442885
3330	0.00427613
3342	0.00534516
3354	0.00503973
3366	0.00412341
3378	0.00397069
3390	0.00442885
3402	0.00351254
3414	0.00427613
3426	0.00519245
3438	0.00549788
3450	0.00381797
3462	0.00335982
3474	0.00274894
3486	0.00290166
3498	0.00397069
3510	0.0032071
3522	0.00290166
3534	0.00503973
3546	0.00397069
3558	0.00305438
3570	0.00427613
3582	0.00305438
3594	0.000916314
3606	0.00427613
3618	0.000763595
3630	0.00198535
3642	0.00183263
3654	0.000305438
3666	0.000610876
3678	0.00167991
3690	0.000916314
3702	0.00198535
3714	0.00152719
3726	0.00152719
3738	0.00351254
3750	0.0024435
3762	0.000610876
3774	0.00183263
3786	0.00213807
3798	0.00290166
3810	0.0024435
3822	0.00274894
3834	0.00305438
3846	0.00305438
3858	0
3870	0.00137447
3882	0.00656692
3894	0.0024435
3906	0.00534516
3918	0.0032071
3930	0.00167991
3942	0.00290166
3954	0.0024435
3966	0.00183263
