Infrared Spectrum: Benzene, 1,2-dichloro-
Formula: C 6 H 4 Cl 2
CAS: 95-50-1
Origin: Sadtler Research Labs Under US-EPA Contract
1/CM	ABSORBANCE
450	0.00818444
462	0.0120074
474	0.0290225
486	0.0307993
498	0.00640755
510	0.00172304
522	0.00349992
534	0.00393068
546	0.00516912
558	0.00533066
570	0.00236918
582	0.00226149
594	0.00199227
606	0.00301532
618	0.00204611
630	0.0037153
642	0.0116305
654	0.0599295
666	0.0812521
678	0.0211611
690	0.00376915
702	0.00290763
714	0.00726907
726	0.0514758
738	0.326462
750	0.433937
762	0.106667
774	0.00161535
786	0.00183073
798	0.00452298
810	0.00581526
822	0.00829213
834	0.00931519
846	0.00317685
858	0.00242302
870	0.00543834
882	0.00549219
894	0.00279994
906	0.00193842
918	0.0043076
930	0.00877673
942	0.0168535
954	0.00640755
966	0.00393068
978	0.00441529
990	0.00619217
1002	0.0132997
1014	0.0330608
1026	0.0889519
1038	0.209726
1050	0.124328
1062	0.00511527
1074	0.0053845
1086	0.0104459
1098	0.0129228
1110	0.0355915
1122	0.177042
1134	0.196588
1146	0.0424299
1158	0.0272456
1170	0.0345685
1182	0.027084
1194	0.00629986
1206	0.00366146
1218	0.00355377
1230	0.00436144
1242	0.0113613
1254	0.022938
1266	0.0177688
1278	0.00775368
1290	0.00247687
1302	0.00193842
1314	0.00199227
1326	0.00247687
1338	0.00204611
1350	0.00651524
1362	0.0113613
1374	0.00802291
1386	0.00656909
1398	0.0134612
1410	0.0125459
1422	0.0318762
1434	0.10279
1446	0.144251
1458	0.306593
1470	0.220441
1482	0.0673062
1494	0.0306916
1506	0.00813059
1518	0.00446913
1530	0.00253071
1542	0.00414606
1554	0.0108767
1566	0.0374223
1578	0.0524989
1590	0.0360762
1602	0.0200303
1614	0.0103921
1626	0.00376915
1638	0.0032307
1650	0.00247687
1662	0.00328454
1674	0.00635371
1686	0.00990748
1698	0.00802291
1710	0.00581526
1722	0.00349992
1734	0.00452298
1746	0.00366146
1758	0.00366146
1770	0.00592295
1782	0.0135689
1794	0.0136228
1806	0.00581526
1818	0.00759214
1830	0.00667678
1842	0.00301532
1854	0.00296147
1866	0.00473836
1878	0.00651524
1890	0.00656909
1902	0.0115228
1914	0.0135151
1926	0.00683831
1938	0.0104459
1950	0.0101767
1962	0.0037153
1974	0.00306917
1986	0.00247687
1998	0.00301532
2010	0.00306917
2022	0.00242302
2034	0.00247687
2046	0.00269225
2058	0.00301532
2070	0.00301532
2082	0.00355377
2094	0.00301532
2106	0.0027461
2118	0.00296147
2130	0.00236918
2142	0.00242302
2154	0.00209995
2166	0.00242302
2178	0.00290763
2190	0.00285378
2202	0.00279994
2214	0.00236918
2226	0.00231533
2238	0.00226149
2250	0.00285378
2262	0.00344608
2274	0.00333839
2286	0.00436144
2298	0.00489989
2310	0.00511527
2322	0.00576141
2334	0.00333839
2346	0.00204611
2358	0.00425375
2370	0
2382	0.0015615
2394	0.0027461
2406	0.00269225
2418	0.0027461
2430	0.00204611
2442	0.00177688
2454	0.0015615
2466	0.0015615
2478	0.00145382
2490	0.00150766
2502	0.00150766
2514	0.00199227
2526	0.00306917
2538	0.0047922
2550	0.00328454
2562	0.00253071
2574	0.00193842
2586	0.00145382
2598	0.00139997
2610	0.00188457
2622	0.00139997
2634	0.00134612
2646	0.00075383
2658	0.00113074
2670	0.00134612
2682	0.00134612
2694	0.00134612
2706	0.00129228
2718	0.00129228
2730	0.00129228
2742	0.00113074
2754	0.00075383
2766	0.00064614
2778	0.00064614
2790	0.000161535
2802	0.00010769
2814	0.00113074
2826	0.00113074
2838	0.00123843
2850	0.00123843
2862	0.000915365
2874	0.000915365
2886	0.00053845
2898	0.000484605
2910	0.00064614
2922	0.00032307
2934	0.00043076
2946	0.00096921
2958	0.00102305
2970	0.00102305
2982	0.00172304
2994	0.00301532
3006	0.00419991
3018	0.00366146
3030	0.00393068
3042	0.00366146
3054	0.00635371
3066	0.0384992
3078	0.0810367
3090	0.0509374
3102	0.0139459
3114	0.00183073
3126	0.00193842
3138	0.00376915
3150	0.00463067
3162	0.00177688
3174	0.00123843
3186	0.00064614
3198	0.000592295
3210	0.000592295
3222	0.000592295
3234	0.000592295
3246	0.000915365
3258	0.00053845
3270	0.00172304
3282	0.00129228
3294	0.0010769
3306	0.00172304
3318	0.0010769
3330	0.0015615
3342	0.00096921
3354	0.00096921
3366	0.00199227
3378	0.00150766
3390	0.00145382
3402	0.00123843
3414	0.00102305
3426	0.00134612
3438	0.00193842
3450	0.00086152
3462	0.0015615
3474	0.00177688
3486	0.00285378
3498	0.00177688
3510	0.00102305
3522	0.00139997
3534	0.0010769
3546	0.00150766
3558	0.00269225
3570	0.00177688
3582	0.00188457
3594	0.000915365
3606	0.00220764
3618	0.00204611
3630	0.0027461
3642	0.00253071
3654	5.3845e-05
3666	0.00269225
3678	0.00150766
3690	0.00064614
3702	0.00231533
3714	0.00150766
3726	0.00339223
3738	0.00231533
3750	0.00188457
3762	0.00145382
3774	0.00064614
3786	0.00204611
3798	0.00279994
3810	0.00333839
3822	0.00382299
3834	0.00290763
3846	0.00161535
3858	0.000807675
3870	0.00177688
3882	0.00145382
3894	0.00193842
3906	0.00086152
3918	0.0015615
3930	0.00177688
3942	0.00296147
3954	0.00269225
3966	0.00129228
