Infrared Spectrum: o-Chloroaniline
Formula: C 6 H 6 Cl N
CAS: 95-51-2
Origin: Sadtler Research Labs Under US-EPA Contract
1/CM	ABSORBANCE
450	0.128958
462	0.105279
474	0.0824125
486	0.0723141
498	0.0568763
510	0.0545548
522	0.0684837
534	0.0771892
546	0.0882162
558	0.098895
570	0.0679033
582	0.058037
594	0.0929753
606	0.113869
618	0.115029
630	0.0897252
642	0.104467
654	0.147414
666	0.231568
678	0.397089
690	0.400223
702	0.29831
714	0.322221
726	0.531851
738	0.981986
750	0.592674
762	0.246773
774	0.115842
786	0.0846179
798	0.0712694
810	0.0600103
822	0.061171
834	0.0715016
846	0.0585013
858	0.0352865
870	0.0301792
882	0.0261167
894	0.0247238
906	0.0244916
918	0.0306435
930	0.0435277
942	0.0277417
954	0.020429
966	0.0237952
978	0.0227505
990	0.0200808
1002	0.0200808
1014	0.103654
1026	0.199183
1038	0.149387
1050	0.146253
1062	0.174575
1074	0.192451
1086	0.320016
1098	0.362963
1110	0.152289
1122	0.0422509
1134	0.0802071
1146	0.133485
1158	0.113636
1170	0.0492154
1182	0.0112592
1194	0.00452689
1206	0.00348222
1218	0.00290185
1230	0.00824125
1242	0.0260006
1254	0.0839215
1266	0.0978504
1278	0.0639568
1290	0.192451
1302	0.386991
1314	0.321641
1326	0.13244
1338	0.0116074
1350	0.000464296
1362	0.00975022
1374	0.0244916
1386	0.020429
1398	0.00789303
1410	0.00708051
1422	0.0106788
1434	0.0322686
1446	0.16703
1458	0.201388
1470	0.221121
1482	0.684256
1494	0.889591
1506	0.415197
1518	0.118163
1530	0.053394
1542	0.0479386
1554	0.0589656
1566	0.108413
1578	0.150664
1590	0.160879
1602	0.325123
1614	0.936021
1626	1.16074
1638	0.573754
1650	0.173879
1662	0.0735909
1674	0.0585013
1686	0.0427152
1698	0.0320364
1710	0.0195004
1722	0.0162504
1734	0.0189201
1746	0.0211255
1758	0.0292506
1770	0.0269292
1782	0.01567
1794	0.0132324
1806	0.00708051
1818	0.00232148
1830	0.00487511
1842	0.0111431
1854	0.0127681
1866	0.0124199
1878	0.0255363
1890	0.0262327
1902	0.0127681
1914	0.0246077
1926	0.0221701
1938	0.0053394
1950	0.00394652
1962	0.0053394
1974	0.00777696
1986	0.00766088
1998	0.00591977
2010	0.00464296
2022	0.00417866
2034	0.0026697
2046	0.0026697
2058	0.00243755
2070	0.00116074
2082	0.00104467
2094	0.00162504
2106	0.00174111
2118	0.00162504
2130	0.00255363
2142	0.00464296
2154	0.00487511
2166	0.00441081
2178	0.00406259
2190	0.00336615
2202	0.00208933
2214	0.00139289
2226	0.00116074
2238	0.000928592
2250	0.000464296
2262	0.000812518
2274	0.00290185
2286	0.00475903
2298	0.00615192
2310	0.00708051
2322	0.00591977
2334	0.00371437
2346	0.00417866
2358	0.000812518
2370	0.00359829
2382	0.00220541
2394	0.00232148
2406	0.00359829
2418	0.00278578
2430	0.00278578
2442	0.00464296
2454	0.00650014
2466	0.00568763
2478	0.00232148
2490	0
2502	0
2514	0.000696444
2526	0.00220541
2538	0.00359829
2550	0.00731266
2562	0.00951807
2574	0.006268
2586	0.00417866
2598	0.00916985
2610	0.0160182
2622	0.0153218
2634	0.00742874
2646	0.00359829
2658	0.00348222
2670	0.00278578
2682	0.00197326
2694	0.00058037
2706	0.00162504
2718	0.00208933
2730	0.00139289
2742	0.00139289
2754	0.00208933
2766	0.00197326
2778	0.00208933
2790	0.00139289
2802	0.00127681
2814	0.00116074
2826	0.000232148
2838	0.000812518
2850	0.00127681
2862	0.003134
2874	0.00742874
2886	0.00975022
2898	0.00789303
2910	0.00464296
2922	0.003134
2934	0.00383044
2946	0.00255363
2958	0.00220541
2970	0.00359829
2982	0.00464296
2994	0.00417866
3006	0.0114913
3018	0.0479386
3030	0.129074
3042	0.141959
3054	0.100056
3066	0.130235
3078	0.21671
3090	0.204638
3102	0.0677872
3114	0.0167147
3126	0.00638407
3138	0.003134
3150	0.00545548
3162	0.00661622
3174	0.00986629
3186	0.0138128
3198	0.01567
3210	0.0124199
3222	0.00731266
3234	0.00348222
3246	0.00464296
3258	0.00290185
3270	0.00232148
3282	0
3294	0.00232148
3306	0.00058037
3318	0.00255363
3330	0.0026697
3342	0.00290185
3354	0.00429474
3366	0.00731266
3378	0.0113753
3390	0.0305275
3402	0.116538
3414	0.187343
3426	0.16378
3438	0.0798589
3450	0.0168307
3462	0.0149735
3474	0.0269292
3486	0.0717337
3498	0.152057
3510	0.172022
3522	0.145209
3534	0.0885645
3546	0.0147414
3558	0.00557155
3570	0.00278578
3582	0.00174111
3594	0.00255363
3606	0.00139289
3618	0.00359829
3630	0.00464296
3642	0.00499118
3654	0.00336615
3666	0.0026697
3678	0.00661622
3690	0.00336615
3702	0.00510726
3714	0.00417866
3726	0.00185718
3738	0.00336615
3750	0.00185718
3762	0.003134
3774	0.00429474
3786	0.00406259
3798	0.00406259
3810	0.00673229
3822	0.00243755
3834	0.00185718
3846	0.0135807
3858	0.0164825
3870	0.00754481
3882	0.00220541
3894	0.00174111
3906	0.00557155
3918	0
3930	0.00545548
3942	0.0111431
3954	0.00545548
3966	0.000232148
