Infrared Spectrum: Benzenamine, 2,4-dimethyl-
Formula: C 8 H 11 N
CAS: 95-68-1
Origin: Sadtler Research Labs Under US-EPA Contract
1/CM	ABSORBANCE
450	0.0181584
462	0.0155225
474	0.0287997
486	0.0284092
498	0.0217706
510	0.0395385
522	0.0577946
534	0.0808343
546	0.114222
558	0.0781984
570	0.0654094
582	0.0746839
594	0.0858133
606	0.0961616
618	0.105046
630	0.117151
642	0.147025
654	0.18422
666	0.157861
678	0.0921589
690	0.0630664
702	0.0529133
714	0.050375
726	0.0458842
738	0.0374884
750	0.0338762
762	0.032119
774	0.0234302
786	0.0761483
798	0.223368
810	0.295807
822	0.153956
834	0.0572088
846	0.0332905
858	0.0444198
870	0.0796628
882	0.0478367
894	0.0154249
906	0.00165964
918	0.00351454
930	0.0075172
942	0.00283115
954	0.00234302
966	0.00722432
978	0.0179632
990	0.0320213
1002	0.0525228
1014	0.0487154
1026	0.0204038
1038	0.0198181
1050	0.0322166
1062	0.0339738
1074	0.0370003
1086	0.0438341
1098	0.0396362
1110	0.0262614
1122	0.0176703
1134	0.0250899
1146	0.0899135
1158	0.0969426
1170	0.0327047
1182	0.00771245
1194	0.00663857
1206	0.00907922
1218	0.0177679
1230	0.0691192
1242	0.107389
1254	0.108365
1266	0.299517
1278	0.46714
1290	0.258318
1302	0.0828845
1314	0.0443222
1326	0.0173774
1338	0.00312403
1350	0.0125938
1362	0.0130819
1374	0.0210872
1386	0.0329976
1398	0.0254804
1410	0.0473486
1422	0.0678501
1434	0.0648237
1446	0.0791747
1458	0.086399
1470	0.123985
1482	0.158154
1494	0.261931
1506	0.791942
1518	0.86399
1530	0.195252
1542	0.0484225
1554	0.0396362
1566	0.0470557
1578	0.0681429
1590	0.109732
1602	0.18588
1614	0.272767
1626	0.431605
1638	0.413153
1650	0.164207
1662	0.0539872
1674	0.0138629
1686	0.00800533
1698	0.00273353
1710	0.0167917
1722	0.0249923
1734	0.0223564
1746	0.0223564
1758	0.0164988
1770	0.00859109
1782	0.00722432
1794	0.00956735
1806	0.0134724
1818	0.00966497
1830	0.00507655
1842	0.012789
1854	0.0304593
1866	0.024016
1878	0.0131795
1890	0.00820058
1902	0.0105436
1914	0.00859109
1926	0.00878634
1938	0.00839584
1950	0.00732195
1962	0.00663857
1974	0.00595519
1986	0.00624806
1998	0.0052718
2010	0.00507655
2022	0.00517418
2034	0.00781008
2046	0.00790771
2058	0.00761483
2070	0.00615044
2082	0.00546706
2094	0.00605281
2106	0.00536943
2118	0.00370979
2130	0.00370979
2142	0.00361216
2154	0.00312403
2166	0.00292878
2178	0.00185489
2190	0.00136676
2202	0.00175727
2214	0.0022454
2226	0.00253828
2238	0.00253828
2250	0.00244065
2262	0.00273353
2274	0.00390504
2286	0.00380741
2298	0.00302641
2310	0.00302641
2322	0.00205015
2334	0.0026359
2346	0.00380741
2358	0.00302641
2370	0.00546706
2382	0.00556468
2394	0.00663857
2406	0.00683382
2418	0.00615044
2430	0.00605281
2442	0.00595519
2454	0.00517418
2466	0.0052718
2478	0.00536943
2490	0.00556468
2502	0.00605281
2514	0.00663857
2526	0.00673619
2538	0.00781008
2550	0.00800533
2562	0.00732195
2574	0.00634569
2586	0.0075172
2598	0.00946972
2610	0.00868871
2622	0.0075172
2634	0.00624806
2646	0.00644332
2658	0.00722432
2670	0.00771245
2682	0.00810296
2694	0.00839584
2706	0.00898159
2718	0.010446
2730	0.0192323
2742	0.0370003
2754	0.028702
2766	0.01357
2778	0.0141558
2790	0.016694
2802	0.0195252
2814	0.0244065
2826	0.0316308
2838	0.0466652
2850	0.0878634
2862	0.193299
2874	0.311036
2886	0.292195
2898	0.256561
2910	0.294635
2922	0.402219
2934	0.490278
2946	0.349696
2958	0.193202
2970	0.170846
2982	0.19408
2994	0.211067
3006	0.341008
3018	0.426235
3030	0.325583
3042	0.227761
3054	0.184806
3066	0.121447
3078	0.0613091
3090	0.0444198
3102	0.0374884
3114	0.0308498
3126	0.0269448
3138	0.0226492
3150	0.0156202
3162	0.0103484
3174	0.00829821
3186	0.00829821
3198	0.00956735
3210	0.0121056
3222	0.0129843
3234	0.0126914
3246	0.0106412
3258	0.00722432
3270	0.00683382
3282	0.00566231
3294	0.00634569
3306	0.00575993
3318	0.00507655
3330	0.00478367
3342	0.00507655
3354	0.00546706
3366	0.00615044
3378	0.00917684
3390	0.023235
3402	0.0571112
3414	0.0539872
3426	0.0213801
3438	0.0126914
3450	0.01357
3462	0.0221611
3474	0.0522299
3486	0.0785889
3498	0.0612115
3510	0.0258709
3522	0.0122033
3534	0.00800533
3546	0.00654094
3558	0.00536943
3570	0.00556468
3582	0.00390504
3594	0.00429554
3606	0.00234302
3618	0.00419792
3630	0.00429554
3642	0.00517418
3654	0.00800533
3666	0.00341691
3678	0.0052718
3690	0.00273353
3702	0.00185489
3714	0.00400267
3726	0.00468605
3738	0.0048813
3750	0.00507655
3762	0.00136676
3774	0.00185489
3786	0.000781008
3798	0
3810	0
3822	0.00136676
3834	0
3846	0
3858	0.00185489
3870	0
3882	0.00244065
3894	0.00165964
3906	0.00361216
3918	0.00136676
3930	0
3942	0
3954	9.7626e-05
3966	0
