Infrared Spectrum: Benzene, 1,2,4-trimethyl-
Formula: C 9 H 12
CAS: 95-63-6
Origin: Sadtler Research Labs Under US-EPA Contract
1/CM	ABSORBANCE
450	0.00473002
462	0.00413876
474	0.00468075
486	0.00537054
498	0.00330116
510	0.00724284
522	0.0231574
534	0.0403037
546	0.0246848
558	0.00877024
570	0.00404022
582	0.0147813
594	0.00625742
606	0.00640523
618	0.00517346
630	0.00512418
642	0.00448366
654	0.00241428
666	0.00098542
678	0.00399095
690	0.00734138
702	0.0139437
714	0.0135003
726	0.0109382
738	0.0104947
750	0.0107411
762	0.00906586
774	0.0130568
786	0.0614902
798	0.157864
810	0.139683
822	0.0543952
834	0.0161609
846	0.0111845
858	0.0197577
870	0.0338492
882	0.0190186
894	0.010544
906	0.00881951
918	0.0103962
930	0.00911513
942	0.00808044
954	0.00808044
966	0.0122685
978	0.0176883
990	0.0393183
1002	0.0533605
1014	0.0400081
1026	0.0318291
1038	0.0234037
1050	0.0211373
1062	0.0173434
1074	0.0120714
1086	0.00788336
1098	0.00778482
1110	0.0139437
1122	0.0217285
1134	0.0223198
1146	0.0217778
1158	0.0215807
1170	0.0157174
1182	0.00946003
1194	0.00965712
1206	0.0179346
1218	0.0213836
1230	0.0136481
1242	0.0127119
1254	0.0120221
1266	0.00946003
1278	0.0102976
1290	0.0107411
1302	0.0107903
1314	0.0111845
1326	0.0137466
1338	0.0172941
1350	0.0183288
1362	0.020004
1374	0.0326174
1386	0.0464626
1398	0.0355737
1410	0.0325189
1422	0.0422745
1434	0.058731
1446	0.0937134
1458	0.127858
1470	0.116526
1482	0.0865691
1494	0.115688
1506	0.230342
1518	0.165846
1530	0.0459206
1542	0.037446
1554	0.0369532
1566	0.0345882
1578	0.0319769
1590	0.0304987
1602	0.0419789
1614	0.0598643
1626	0.0400573
1638	0.0120221
1650	0.00596179
1662	0.00537054
1674	0.00704575
1686	0.00719357
1698	0.00689794
1710	0.0110367
1722	0.0152247
1734	0.0179839
1746	0.0172449
1758	0.00739065
1770	0.00428658
1782	0.00354751
1794	0.00428658
1806	0.00625742
1818	0.00640523
1830	0.00448366
1842	0.00502564
1854	0.00630669
1866	0.011086
1878	0.0160623
1890	0.0119729
1902	0.00581398
1914	0.00453293
1926	0.00364605
1938	0.00315334
1950	0.00266063
1962	0.00266063
1974	0.00256209
1986	0.00197084
1998	0.00192157
2010	0.0015274
2022	0.00133032
2034	0.00147813
2046	0.00123178
2058	0.000788336
2070	0.00123178
2082	0.00128105
2094	0.00226647
2106	0.00251282
2118	0.00211865
2130	0.00167521
2142	0.00157667
2154	0.00123178
2166	0.00049271
2178	0.00103469
2190	0.000541981
2202	0.000394168
2214	0.000443439
2226	0.000689794
2238	0.000886878
2250	0.00128105
2262	0.0015274
2274	0.00108396
2286	0.00226647
2298	0.00236501
2310	0.00206938
2322	0.00113323
2334	0.000837607
2346	0.00128105
2358	0.0011825
2370	4.9271e-05
2382	0.00157667
2394	0.0030548
2406	0.00359678
2418	0.00344897
2430	0.00359678
2442	0.00408949
2454	0.00364605
2466	0.0037446
2478	0.00404022
2490	0.00453293
2502	0.00418804
2514	0.0037446
2526	0.0030548
2538	0.00330116
2550	0.00246355
2562	0.00231574
2574	0.00192157
2586	0.00157667
2598	0.00261136
2610	0.00285772
2622	0.00335043
2634	0.00344897
2646	0.00157667
2658	0.00202011
2670	0.0033997
2682	0.00285772
2694	0.00394168
2706	0.00576471
2718	0.00748919
2730	0.0154218
2742	0.0248326
2754	0.016358
2766	0.0114801
2778	0.0120714
2790	0.0110367
2802	0.0145349
2814	0.020546
2826	0.0273947
2838	0.0402051
2850	0.0679447
2862	0.138107
2874	0.238521
2886	0.251873
2898	0.219798
2910	0.22374
2922	0.335634
2934	0.491922
2946	0.411807
2958	0.270547
2970	0.248227
2982	0.232411
2994	0.212309
3006	0.280007
3018	0.30686
3030	0.224626
3042	0.185801
3054	0.176883
3066	0.115491
3078	0.0708024
3090	0.0487783
3102	0.032371
3114	0.0246355
3126	0.0233545
3138	0.0178854
3150	0.0101006
3162	0.00694721
3174	0.00541981
3186	0.00408949
3198	0.00408949
3210	0.00408949
3222	0.00202011
3234	0.00310407
3246	0.00389241
3258	0.00394168
3270	0.00315334
3282	0.0030548
3294	0.00389241
3306	0.00330116
3318	0.00413876
3330	0.00211865
3342	0.00177376
3354	0.00320262
3366	0.00320262
3378	0.00211865
3390	0.00266063
3402	0.00211865
3414	0.00211865
3426	0.00325189
3438	0.00256209
3450	0.00192157
3462	0.00231574
3474	0.00177376
3486	0.00251282
3498	0.00246355
3510	0.00142886
3522	0.0015274
3534	0.00266063
3546	0.00128105
3558	0.00221719
3570	0.00423731
3582	0.00202011
3594	0.00103469
3606	0.00202011
3618	0.0018723
3630	0.00197084
3642	0.00344897
3654	0.00310407
3666	0.00315334
3678	0.00399095
3690	0.00541981
3702	0.00330116
3714	0.00433585
3726	0.00404022
3738	0.00596179
3750	0.00285772
3762	0.00507491
3774	0.005272
3786	0.0045822
3798	0.00364605
3810	0.00443439
3822	0.0049271
3834	0.00546908
3846	0.00507491
3858	0.00581398
3870	0.00566617
3882	0.00517346
3894	0.0079819
3906	0.00576471
3918	0.00468075
3930	0.00650377
3942	0.00438512
3954	0.00532127
3966	0.00625742
