Infrared Spectrum: Benzenamine, 3,4-dimethyl-
Formula: C 8 H 11 N
CAS: 95-64-7
Origin: Sadtler Research Labs Under US-EPA Contract
1/CM	ABSORBANCE
450	0.0341486
462	0.0201218
474	0.0372379
486	0.0420805
498	0.0228771
510	0.0263003
522	0.0399931
534	0.0530181
546	0.0819901
558	0.0965179
570	0.0841609
582	0.065876
594	0.048092
606	0.0508472
618	0.0697167
630	0.112048
642	0.217583
654	0.306085
666	0.291307
678	0.235283
690	0.169825
702	0.11664
714	0.0882521
726	0.0669614
738	0.0487599
750	0.0349001
762	0.0293895
774	0.0439173
786	0.124071
798	0.255489
810	0.207146
822	0.105535
834	0.0748932
846	0.131418
858	0.107706
870	0.0509307
882	0.018452
894	0.00910074
906	0.00375718
918	0.0035902
930	0.0100192
942	0.0132754
954	0.0109376
966	0.0151957
978	0.0288051
990	0.0620353
1002	0.0942636
1014	0.0740583
1026	0.0348166
1038	0.01745
1050	0.0216247
1062	0.0489269
1074	0.0693827
1086	0.0500958
1098	0.0224596
1110	0.0313934
1122	0.0454202
1134	0.0339817
1146	0.0182015
1158	0.0303915
1170	0.0283876
1182	0.00692992
1194	0.0168656
1206	0.0622858
1218	0.0708021
1230	0.0252984
1242	0.0246304
1254	0.0996906
1266	0.241545
1278	0.215829
1290	0.16373
1302	0.270935
1314	0.179426
1326	0.0204558
1338	0.00659595
1350	0.0107706
1362	0.0188694
1374	0.029473
1386	0.0335642
1398	0.0200383
1410	0.0194539
1422	0.0389912
1434	0.0720545
1446	0.120313
1458	0.165066
1470	0.160056
1482	0.166569
1494	0.305751
1506	0.610835
1518	0.50029
1530	0.107455
1542	0.0746427
1554	0.0814892
1566	0.109376
1578	0.187859
1590	0.237621
1602	0.239541
1614	0.419218
1626	0.83493
1638	0.61192
1650	0.174083
1662	0.0613674
1674	0.0224596
1686	0.0225431
1698	0.0198713
1710	0.0150287
1722	0.0151957
1734	0.0127744
1746	0.00976868
1758	0.00793183
1770	0.00384068
1782	0.00217082
1794	0.00100192
1806	0.00208732
1818	0.00325623
1830	0.00684643
1842	0.0161976
1854	0.0208732
1866	0.0122735
1878	0.00500958
1890	0.00267178
1902	0.00308924
1914	0.00333972
1926	0.00542704
1938	0.00684643
1950	0.00659595
1962	0.00534355
1974	0.00400766
1986	0.00367369
1998	0.00325623
2010	0.00258828
2022	0.00292225
2034	0.00392417
2046	0.00400766
2058	0.0060115
2070	0.00701341
2082	0.00559403
2094	0.00459211
2106	0.00417465
2118	0.00367369
2130	0.00350671
2142	0.00325623
2154	0.0035902
2166	0.00442513
2178	0.00467561
2190	0.00450862
2202	0.00425814
2214	0.00375718
2226	0.00333972
2238	0.00417465
2250	0.00425814
2262	0.00417465
2274	0.00542704
2286	0.00542704
2298	0.00584451
2310	0.005928
2322	0.00526006
2334	0.00467561
2346	0.00584451
2358	0.00584451
2370	0.00659595
2382	0.005928
2394	0.00500958
2406	0.00517657
2418	0.00517657
2430	0.00517657
2442	0.00534355
2454	0.00559403
2466	0.00634547
2478	0.00576102
2490	0.00534355
2502	0.00484259
2514	0.00500958
2526	0.00467561
2538	0.00551054
2550	0.00659595
2562	0.00851629
2574	0.00960169
2586	0.00851629
2598	0.00759786
2610	0.00659595
2622	0.00509307
2634	0.00509307
2646	0.00551054
2658	0.0060115
2670	0.00684643
2682	0.00851629
2694	0.0101027
2706	0.0127744
2718	0.0146113
2730	0.0204558
2742	0.0285546
2754	0.023712
2766	0.0166151
2778	0.0166986
2790	0.0159472
2802	0.0197878
2814	0.0250479
2826	0.0328127
2838	0.0466726
2850	0.0751437
2862	0.144777
2874	0.236452
2886	0.240376
2898	0.200968
2910	0.229105
2922	0.332219
2934	0.433997
2946	0.390413
2958	0.274525
2970	0.258745
2982	0.22301
2994	0.190782
3006	0.314268
3018	0.380478
3030	0.280536
3042	0.210736
3054	0.187859
3066	0.134758
3078	0.0873337
3090	0.0602819
3102	0.0442513
3114	0.035735
3126	0.0316438
3138	0.0253819
3150	0.017784
3162	0.012357
3174	0.0102696
3186	0.00910074
3198	0.0101861
3210	0.012023
3222	0.0135259
3234	0.0148618
3246	0.0128579
3258	0.00968519
3270	0.00876676
3282	0.00701341
3294	0.00642896
3306	0.00634547
3318	0.00534355
3330	0.00517657
3342	0.00559403
3354	0.00626197
3366	0.00935122
3378	0.0153627
3390	0.0366534
3402	0.0644566
3414	0.0581946
3426	0.029473
3438	0.0168656
3450	0.0171996
3462	0.0255489
3474	0.0470901
3486	0.05928
3498	0.047925
3510	0.0276362
3522	0.0145278
3534	0.00993567
3546	0.00768136
3558	0.00734738
3570	0.00667944
3582	0.00576102
3594	0.00509307
3606	0.00442513
3618	0.00400766
3630	0.00459211
3642	0.00442513
3654	0.00409116
3666	0.00467561
3678	0.00384068
3690	0.00384068
3702	0.00350671
3714	0.00467561
3726	0.00434164
3738	0.00450862
3750	0.0035902
3762	0.00442513
3774	0.00325623
3786	0.00367369
3798	0.00217082
3810	0.00275527
3822	0.00208732
3834	0.00292225
3846	0.00409116
3858	0.00484259
3870	0.0047591
3882	0.00409116
3894	0.00517657
3906	0.00450862
3918	0.00542704
3930	0.00283876
3942	0.0035902
3954	0.00467561
3966	0.00434164
