Infrared Spectrum: Benzene, 2,4-dichloro-1-methyl-
Formula: C 7 H 6 Cl 2
CAS: 95-73-8
Origin: Sadtler Research Labs Under US-EPA Contract
1/CM	ABSORBANCE
450	0.000165024
462	0.00627091
474	0.00544579
486	0.00555581
498	0.00170525
510	0.00335549
522	0.00231034
534	0.0149072
546	0.0420811
558	0.0238185
570	0.00858125
582	0.0048407
594	0.00269539
606	0.00440064
618	0.00385056
630	0.00731606
642	0.0459317
654	0.0507174
666	0.000495072
678	0.0082512
690	0.0332798
702	0.137795
714	0.149127
726	0.0152372
738	0.0129819
750	0.00990144
762	0.00445565
774	0.00495072
786	0.0173275
798	0.124813
810	0.244181
822	0.127289
834	0.399138
846	0.186807
858	0.0647994
870	0.165354
882	0.0519276
894	0.00401558
906	0.00385056
918	0.00429062
930	0.00561082
942	0.00517075
954	0.00583085
966	0.00935136
978	0.0223883
990	0.0569883
1002	0.0561632
1014	0.0154022
1026	0.0156773
1038	0.0450516
1050	0.195168
1062	0.169315
1074	0.0299794
1086	0.048407
1098	0.133284
1110	0.212331
1122	0.152042
1134	0.0561082
1146	0.0168324
1158	0.00929635
1170	0.013917
1182	0.0100665
1194	0.00814118
1206	0.00990144
1218	0.00638093
1230	0.00781114
1242	0.0149072
1254	0.0301444
1266	0.0377355
1278	0.0193628
1290	0.0048407
1302	0.00528077
1314	0.00500573
1326	0.00500573
1338	0.00803117
1350	0.0148522
1362	0.034215
1374	0.082402
1386	0.108201
1398	0.0507724
1410	0.0359202
1422	0.068815
1434	0.0553931
1446	0.0887829
1458	0.138675
1470	0.426202
1482	0.493697
1494	0.209415
1506	0.0692551
1518	0.0283291
1530	0.0188127
1542	0.0316846
1554	0.0600137
1566	0.121183
1578	0.13455
1590	0.171185
1602	0.143681
1614	0.0315196
1626	0.013477
1638	0.00858125
1650	0.00726106
1662	0.0047857
1674	0.00588586
1686	0.00643594
1698	0.0075911
1710	0.00704102
1722	0.00984643
1734	0.0260738
1746	0.0210681
1758	0.00913133
1770	0.0061609
1782	0.00291542
1794	0.00396058
1806	0.00308045
1818	0.00313546
1830	0.00269539
1842	0.00291542
1854	0.00456566
1866	0.00632592
1878	0.0156223
1890	0.0131469
1902	0.00313546
1914	0.00264038
1926	0.00165024
1938	0.0013752
1950	0.00154022
1962	0.000990144
1974	0.0020903
1986	0.0020903
1998	0.00192528
2010	0.00143021
2022	0.00104515
2034	0.0013752
2046	0.0013752
2058	0.000715104
2070	0.000495072
2082	0.000990144
2094	0.00143021
2106	0.000990144
2118	0.00104515
2130	0.0013752
2142	0.000935136
2154	0.00104515
2166	0.000935136
2178	0.000935136
2190	0.000990144
2202	0.0013752
2214	0.00143021
2226	0.00181526
2238	0.0013752
2250	0.00148522
2262	0.00148522
2274	0.00154022
2286	0.00198029
2298	0.00258538
2310	0.0027504
2322	0.00313546
2334	0.00357552
2346	0.00368554
2358	0.00247536
2370	0.00308045
2382	0.00396058
2394	0.00291542
2406	0.00236534
2418	0.00264038
2430	0.0020353
2442	0.00214531
2454	0.00231034
2466	0.00181526
2478	0.00242035
2490	0.00192528
2502	0.00170525
2514	0.00225533
2526	0.00313546
2538	0.00214531
2550	0.00110016
2562	0.00110016
2574	0.00110016
2586	0.00280541
2598	0.00264038
2610	0.00214531
2622	0.00231034
2634	0.00269539
2646	0.00324547
2658	0.00330048
2670	0.00286042
2682	0.00242035
2694	0.00297043
2706	0.00269539
2718	0.00291542
2730	0.0034105
2742	0.00451066
2754	0.00654595
2766	0.00434563
2778	0.00253037
2790	0.00308045
2802	0.00374054
2814	0.00544579
2826	0.00808618
2838	0.00858125
2850	0.0122118
2862	0.0216732
2874	0.0335549
2886	0.0288242
2898	0.0247536
2910	0.027834
2922	0.0348201
2934	0.0776163
2946	0.0869676
2958	0.0497822
2970	0.0561632
2982	0.0562182
2994	0.0554481
3006	0.0320147
3018	0.0287142
3030	0.0424112
3042	0.0332248
3054	0.0288792
3066	0.041476
3078	0.0382306
3090	0.0240935
3102	0.0107816
3114	0.00610589
3126	0.00423562
3138	0.0041256
3150	0.00280541
3162	0.00313546
3174	0.00368554
3186	0.00225533
3198	0.00242035
3210	0.00170525
3222	0.0027504
3234	0.0027504
3246	0.00324547
3258	0.00308045
3270	0.00236534
3282	0.00192528
3294	0.00291542
3306	0.00192528
3318	0.00297043
3330	0.00242035
3342	0.000935136
3354	0.00236534
3366	0.00253037
3378	0.00297043
3390	0.00165024
3402	0.0020903
3414	0.0027504
3426	0.0020903
3438	0.00253037
3450	0.00357552
3462	0.0034105
3474	0.00132019
3486	0.00291542
3498	0.00247536
3510	0.00390557
3522	0.000935136
3534	0.00231034
3546	0.00313546
3558	0.0020903
3570	0.00247536
3582	0.0027504
3594	0.00379555
3606	0.00192528
3618	0.00220032
3630	0.00396058
3642	0.00324547
3654	0.00401558
3666	0.00330048
3678	0.00269539
3690	0.00280541
3702	0.0034105
3714	0.0041256
3726	0.00379555
3738	0.00473069
3750	0.00418061
3762	0.00506074
3774	0.00506074
3786	0.00330048
3798	0.00429062
3810	0.00522576
3822	0.0041256
3834	0.00418061
3846	0.00429062
3858	0.00451066
3870	0.00335549
3882	0.00385056
3894	0.00528077
3906	0.00434563
3918	0.00627091
3930	0.00693101
3942	0.00583085
3954	0.00407059
3966	0.00528077
