Infrared Spectrum: 1,4-Benzenediol, 2-methyl-
Formula: C 7 H 8 O 2
CAS: 95-71-6
Origin: Sadtler Research Labs Under US-EPA Contract
1/CM	ABSORBANCE
450	0.106072
462	0.031144
474	0.0355932
486	0.0347842
498	0.0358965
510	0.0310429
522	0.01992
534	0.00566255
546	0.0102128
558	0.040649
570	0.0710853
582	0.0379189
594	0.017291
606	0.0047525
618	0.00485362
630	0.00637037
642	0.00738154
654	0.000808936
666	0.0041458
678	0.00111229
690	0.0041458
702	0.00930276
714	0.0314474
726	0.0921176
738	0.0627937
750	0.0222457
762	0.157439
774	0.210526
786	0.134182
798	0.144193
810	0.111229
822	0.0608724
834	0.0573333
846	0.0893874
858	0.0738154
870	0.0571311
882	0.0261893
894	0.0208301
906	0.0343798
918	0.0178977
930	0.0184033
942	0.0346831
954	0.0365032
966	0.0262904
978	0.0365032
990	0.0742199
1002	0.0849383
1014	0.0461094
1026	0.0237625
1038	0.0193133
1050	0.0187066
1062	0.0256837
1074	0.0445926
1086	0.0953533
1098	0.127407
1110	0.0891852
1122	0.0734109
1134	0.166843
1146	0.280499
1158	0.555638
1170	0.940995
1182	0.894077
1194	0.58658
1206	0.351382
1218	0.287071
1230	0.325091
1242	0.286464
1254	0.168259
1266	0.11952
1278	0.193235
1290	0.322968
1302	0.316901
1314	0.19829
1326	0.116891
1338	0.0517719
1350	0.0331664
1362	0.0227513
1374	0.0232569
1386	0.0297284
1398	0.0300317
1410	0.0422669
1422	0.104656
1434	0.180797
1446	0.177865
1458	0.138025
1470	0.134991
1482	0.199504
1494	0.45078
1506	0.746547
1518	0.532887
1530	0.138935
1542	0.0552099
1554	0.0404468
1566	0.0306385
1578	0.0307396
1590	0.0455026
1602	0.0612769
1614	0.063097
1626	0.0483339
1638	0.0321552
1650	0.0309418
1662	0.0952522
1674	0.15299
1686	0.0935332
1698	0.0213357
1710	0.0141564
1722	0.014662
1734	0.0132463
1746	0.00829159
1758	0.00788713
1770	0.00738154
1782	0.00485362
1794	0.00374133
1806	0.00455027
1818	0.00667372
1830	0.00586479
1842	0.00455027
1854	0.0041458
1866	0.00465138
1878	0.00343798
1890	0.00212346
1902	0.00202234
1914	0.000707819
1926	0.000505585
1938	0.0012134
1950	0.00242681
1962	0.00283128
1974	0.00182011
1986	0.00242681
1998	0.00394356
2010	0.0047525
2022	0.00364021
2034	0.00364021
2046	0.00485362
2058	0.0041458
2070	0.00182011
2082	0.000910053
2094	0.00111229
2106	0.00192122
2118	0.00212346
2130	0.00212346
2142	0.00212346
2154	0.00252792
2166	0.00313463
2178	0.00364021
2190	0.00384245
2202	0.00353909
2214	0.00353909
2226	0.00384245
2238	0.00424691
2250	0.00404468
2262	0.00364021
2274	0.00485362
2286	0.00525808
2298	0.0047525
2310	0.00566255
2322	0.00728042
2334	0.0088983
2346	0.0088983
2358	0.0109206
2370	0.009505
2382	0.0101117
2394	0.00768489
2406	0.00667372
2418	0.00697707
2430	0.00778601
2442	0.00808936
2454	0.00798824
2466	0.00879718
2478	0.00940388
2490	0.00728042
2502	0.00515697
2514	0.00495473
2526	0.0047525
2538	0.00404468
2550	0.00343798
2562	0.00343798
2574	0.00313463
2586	0.00273016
2598	0.00273016
2610	0.00283128
2622	0.00252792
2634	0.00161787
2646	0.0012134
2658	0.000808936
2670	0.00101117
2682	0.000606702
2694	0.000707819
2706	0.00131452
2718	0.00222457
2730	0.00323574
2742	0.0059659
2754	0.00677484
2766	0.00434803
2778	0.0041458
2790	0.00374133
2802	0.0041458
2814	0.00444915
2826	0.00637037
2838	0.00859494
2850	0.0160776
2862	0.0334697
2874	0.0464127
2886	0.0443904
2898	0.0409524
2910	0.0500529
2922	0.0768489
2934	0.0997014
2946	0.0853427
2958	0.0562211
2970	0.0514686
2982	0.0541987
2994	0.0485362
3006	0.0486373
3018	0.0865562
3030	0.114363
3042	0.0870617
3054	0.0583445
3066	0.0417613
3078	0.0293239
3090	0.0180999
3102	0.0111229
3114	0.00879718
3126	0.00859494
3138	0.00808936
3150	0.00677484
3162	0.00546032
3174	0.00515697
3186	0.00495473
3198	0.00455027
3210	0.00455027
3222	0.00444915
3234	0.00455027
3246	0.00404468
3258	0.00455027
3270	0.00444915
3282	0.00556143
3294	0.00606702
3306	0.00657261
3318	0.00626925
3330	0.00808936
3342	0.00707819
3354	0.0059659
3366	0.00556143
3378	0.00717931
3390	0.00849383
3402	0.00819048
3414	0.00798824
3426	0.00808936
3438	0.00677484
3450	0.00505585
3462	0.0053592
3474	0.00515697
3486	0.00364021
3498	0.00293239
3510	0.00525808
3522	0.00394356
3534	0.00364021
3546	0.00242681
3558	0.00323574
3570	0.00111229
3582	0.00384245
3594	0.00202234
3606	0.0053592
3618	0.0161787
3630	0.0443904
3642	0.192628
3654	0.522472
3666	0.416299
3678	0.065726
3690	0.00768489
3702	0.00394356
3714	0.00353909
3726	0.00333686
3738	0.00485362
3750	0
3762	0.00465138
3774	0.00434803
3786	0.0047525
3798	0.00495473
3810	0.00899941
3822	0.00626925
3834	0.00657261
3846	0.00576367
3858	0.00758378
3870	0.00515697
3882	0.00313463
3894	0.00647149
3906	0.00384245
3918	0.00293239
3930	0.00626925
3942	0.0053592
3954	0.00384245
3966	0.00515697
