Infrared Spectrum: Benzenamine, 3-chloro-4-methyl-
Formula: C 7 H 8 Cl N
CAS: 95-74-9
Origin: Sadtler Research Labs Under US-EPA Contract
1/CM	ABSORBANCE
450	0.0135238
462	0.0213878
474	0.0349115
486	0.0200771
498	0.0072087
510	0.000119152
522	0.00405117
534	0.0103066
546	0.012511
558	0.0210303
570	0.0369371
582	0.0243666
594	0.00482566
606	0.00589802
618	0.0142387
630	0.0426564
642	0.114028
654	0.215069
666	0.222099
678	0.121714
690	0.131246
702	0.118318
714	0.0482566
726	0.029788
738	0.0302646
750	0.0302646
762	0.0228772
774	0.0184686
786	0.0524269
798	0.135238
810	0.100683
822	0.0381286
834	0.0529035
846	0.11522
858	0.0717295
870	0.0475416
882	0.0522482
894	0.0988366
906	0.130412
918	0.0206133
930	0.00673209
942	0.00643421
954	0.00911513
966	0.0139408
978	0.0236517
990	0.0424181
1002	0.0371754
1014	0.0159068
1026	0.0215665
1038	0.159366
1050	0.22067
1062	0.0365201
1074	0.0253794
1086	0.0390819
1098	0.0245453
1110	0.007447
1122	0.00417032
1134	0.00440862
1146	0.00947258
1158	0.00798318
1170	0.00309795
1182	0.00101279
1194	0.00548099
1206	0.0228176
1218	0.011379
1230	0.00399159
1242	0.027822
1254	0.110633
1266	0.116292
1278	0.0982408
1290	0.171638
1302	0.109084
1314	0.011379
1326	0.00554057
1338	0.0044682
1350	0.00280007
1362	0.00607675
1374	0.0122727
1386	0.0154898
1398	0.0155493
1410	0.0467672
1422	0.0562993
1434	0.0402138
1446	0.0555248
1458	0.0623165
1470	0.0520098
1482	0.0774488
1494	0.338332
1506	0.511281
1518	0.152455
1530	0.0380691
1542	0.0226985
1554	0.0382478
1566	0.092879
1578	0.130114
1590	0.086981
1602	0.102113
1614	0.251053
1626	0.592662
1638	0.370801
1650	0.0853128
1662	0.0331243
1674	0.0254985
1686	0.0249028
1698	0.0173366
1710	0.011379
1722	0.0135833
1734	0.0137621
1746	0.00643421
1758	0.00375329
1770	0.00280007
1782	0.000357456
1794	0.000238304
1806	0.000536184
1818	0.00059576
1830	0.000774488
1842	0.00399159
1854	0.00953216
1866	0.00935343
1878	0.0027405
1890	0.00166813
1902	0.00250219
1914	0.00411074
1926	0.00560014
1938	0.0047065
1950	0.00428947
1962	0.00345541
1974	0.00250219
1986	0.00154898
1998	0.00089364
2010	0.000834064
2022	0.000834064
2034	0.00089364
2046	0.00190643
2058	0.00351498
2070	0.00357456
2082	0.00214474
2094	0.00166813
2106	0.0012511
2118	0.00089364
2130	0.00089364
2142	0.00142982
2154	0.00202558
2166	0.00268092
2178	0.00119152
2190	0.0017277
2202	0.00137025
2214	0.000476608
2226	0.000476608
2238	0.000536184
2250	0.000655336
2262	0.000655336
2274	0.0017277
2286	0.00238304
2298	0.00256177
2310	0.00208516
2322	0.00220431
2334	0.00196601
2346	0.00142982
2358	0.00220431
2370	0
2382	0.000714912
2394	0.0017277
2406	0.00220431
2418	0.00119152
2430	0.000834064
2442	0.000417032
2454	0.000476608
2466	0.000536184
2478	0.000774488
2490	0.00089364
2502	0.00113194
2514	0.0017277
2526	0.00220431
2538	0.00357456
2550	0.0042299
2562	0.00345541
2574	0.0029788
2586	0.0029788
2598	0.00250219
2610	0.00214474
2622	0.00160855
2634	0.00107237
2646	0.00113194
2658	0.0017277
2670	0.00220431
2682	0.00285965
2694	0.00339583
2706	0.00285965
2718	0.00244262
2730	0.00250219
2742	0.00512354
2754	0.00714912
2766	0.00417032
2778	0.00309795
2790	0.00309795
2802	0.00256177
2814	0.00315753
2826	0.00452778
2838	0.0076853
2850	0.0134642
2862	0.0274645
2874	0.0390223
2886	0.0326476
2898	0.0291327
2910	0.0360435
2922	0.0502226
2934	0.0831681
2946	0.0807255
2958	0.0533205
2970	0.050163
2982	0.0517715
2994	0.0434905
3006	0.0322306
3018	0.0433118
3030	0.0817383
3042	0.0835851
3054	0.0685124
3066	0.0543333
3078	0.0344945
3090	0.0197197
3102	0.0107237
3114	0.00923428
3126	0.00756615
3138	0.00506396
3150	0.00291922
3162	0.00232346
3174	0.00238304
3186	0.00208516
3198	0.00262134
3210	0.0057193
3222	0.00685124
3234	0.00899598
3246	0.00685124
3258	0.00440862
3270	0.00291922
3282	0.0029788
3294	0.00190643
3306	0.0012511
3318	0.00184686
3330	0.0014894
3342	0.00232346
3354	0.00142982
3366	0.00339583
3378	0.00536184
3390	0.0141791
3402	0.0378903
3414	0.0534992
3426	0.0390819
3438	0.0147748
3450	0.00607675
3462	0.00691082
3474	0.0156685
3486	0.0334221
3498	0.0361626
3510	0.0285369
3522	0.0147153
3534	0.00530226
3546	0.00303838
3558	0.00101279
3570	0.00119152
3582	0.00178728
3594	0.00101279
3606	0.000476608
3618	0.00029788
3630	0.00166813
3642	0.000417032
3654	0.000536184
3666	0.000417032
3678	0
3690	0.000417032
3702	0.00142982
3714	0.00291922
3726	0.00256177
3738	0.00268092
3750	0.000476608
3762	0.000357456
3774	0.000238304
3786	0.000238304
3798	0.00089364
3810	0.000238304
3822	0.000178728
3834	0.00059576
3846	0.00160855
3858	0.00309795
3870	0.00309795
3882	0.00101279
3894	0.00119152
3906	0.00154898
3918	0.0014894
3930	0.000953216
3942	0.00154898
3954	0.00178728
3966	0.000834064
