Infrared Spectrum: Benzenamine, 5-chloro-2-methyl-
Formula: C 7 H 8 Cl N
CAS: 95-79-4
Origin: Sadtler Research Labs Under US-EPA Contract
1/CM	ABSORBANCE
450	0.0985114
462	0.101268
474	0.0826136
486	0.0734241
498	0.0749863
510	0.086657
522	0.0916193
534	0.092814
546	0.0836245
558	0.056883
570	0.0875759
582	0.104301
594	0.0934572
606	0.0837163
618	0.0759053
630	0.12121
642	0.15714
654	0.234792
666	0.211267
678	0.177357
690	0.209521
702	0.200331
714	0.137659
726	0.116247
738	0.0923545
750	0.0614778
762	0.0677266
774	0.0912517
786	0.221467
798	0.238468
810	0.100074
822	0.0544018
834	0.130031
846	0.244257
858	0.143448
870	0.0699321
882	0.0808676
894	0.283588
906	0.430712
918	0.0859218
930	0.0193898
942	0.00974087
954	0.0179195
966	0.0259144
978	0.0631319
990	0.214575
1002	0.123691
1014	0.0290388
1026	0.0304172
1038	0.0233413
1050	0.036758
1062	0.11928
1074	0.0828893
1086	0.0509098
1098	0.139497
1110	0.104209
1122	0.0484287
1134	0.0453961
1146	0.0442015
1158	0.0233413
1170	0.00634076
1182	0.0152546
1194	0.100166
1206	0.100349
1218	0.0234332
1230	0.0269252
1242	0.057802
1254	0.166514
1266	0.208602
1278	0.12755
1290	0.133523
1302	0.0911598
1314	0.00937329
1326	0.00165411
1338	0.00036758
1350	0.00569749
1362	0.0112112
1374	0.0321632
1386	0.0430069
1398	0.0497152
1410	0.189304
1422	0.237365
1434	0.134534
1446	0.0984195
1458	0.11928
1470	0.152546
1482	0.290204
1494	0.84038
1506	0.73369
1518	0.162838
1530	0.0404338
1542	0.0459475
1554	0.0591804
1566	0.147675
1578	0.313086
1590	0.324849
1602	0.415733
1614	0.642989
1626	0.854991
1638	0.555413
1650	0.184617
1662	0.0765485
1674	0.0482449
1686	0.0393311
1698	0.0363904
1710	0.026282
1722	0.023617
1734	0.0263739
1746	0.0204926
1758	0.0180114
1770	0.0102003
1782	0.00882192
1794	0.0101084
1806	0.0117626
1818	0.00974087
1830	0.0125896
1842	0.0179195
1854	0.0263739
1866	0.0234332
1878	0.00707592
1890	0.0090976
1902	0.00762729
1914	0.00799487
1926	0.00946518
1938	0.00716781
1950	0.00928139
1962	0.00974087
1974	0.00992466
1986	0.00863813
1998	0.0100166
2010	0.00487044
2022	0.00882192
2034	0.00891382
2046	0.00964898
2058	0.012222
2070	0.0072597
2082	0.00882192
2094	0.00983277
2106	0.0108436
2118	0.0110274
2130	0.0115788
2142	0.0100166
2154	0.0133248
2166	0.0134167
2178	0.0103841
2190	0.0120382
2202	0.00891382
2214	0.0123139
2226	0.0100166
2238	0.010476
2250	0.012222
2262	0.0117626
2274	0.0127734
2286	0.0118545
2298	0.0136005
2310	0.0154384
2322	0.0199412
2334	0.0156221
2346	0.019298
2358	0.0150708
2370	0.0123139
2382	0.0146113
2394	0.0113031
2406	0.0135086
2418	0.0111193
2430	0.0123139
2442	0.0128653
2454	0.0133248
2466	0.0129572
2478	0.0147951
2490	0.0146113
2502	0.0140599
2514	0.0182871
2526	0.0135086
2538	0.0153465
2550	0.0169087
2562	0.0179195
2574	0.0194817
2586	0.0171844
2598	0.0150708
2610	0.0132329
2622	0.0138761
2634	0.0123139
2646	0.013968
2658	0.0120382
2670	0.0154384
2682	0.0179195
2694	0.0170925
2706	0.0194817
2718	0.0151627
2730	0.0209521
2742	0.0270171
2754	0.0251792
2766	0.0158059
2778	0.0151627
2790	0.018379
2802	0.0204007
2814	0.0205845
2826	0.0223305
2838	0.0279361
2850	0.0336336
2862	0.0931815
2874	0.157324
2886	0.125712
2898	0.117901
2910	0.131869
2922	0.136924
2934	0.183055
2946	0.165687
2958	0.0895057
2970	0.0872084
2982	0.111561
2994	0.092814
3006	0.058629
3018	0.0715862
3030	0.133432
3042	0.127826
3054	0.0697483
3066	0.0464989
3078	0.0497152
3090	0.0565154
3102	0.0496233
3114	0.0342768
3126	0.0217791
3138	0.0174601
3150	0.0140599
3162	0.0162654
3174	0.0127734
3186	0.0182871
3198	0.0175519
3210	0.0184709
3222	0.0205845
3234	0.0165411
3246	0.0196655
3258	0.016633
3270	0.0147951
3282	0.0115788
3294	0.0145194
3306	0.00863813
3318	0.0141518
3330	0.0124977
3342	0.0106598
3354	0.0162654
3366	0.00992466
3378	0.0163573
3390	0.0231575
3402	0.0553208
3414	0.112939
3426	0.0947437
3438	0.036758
3450	0.0203088
3462	0.0219629
3474	0.0234332
3486	0.0658887
3498	0.112296
3510	0.0972249
3522	0.0471421
3534	0.018379
3546	0.016633
3558	0.0141518
3570	0.0167249
3582	0.0118545
3594	0.0134167
3606	0.012222
3618	0.0158978
3630	0.0143356
3642	0.0150708
3654	0.0136924
3666	0.0109355
3678	0.0161735
3690	0.0121301
3702	0.0169087
3714	0.0146113
3726	0.0129572
3738	0.0155303
3750	0.016633
3762	0.0137842
3774	0.0152546
3786	0.0146113
3798	0.00946518
3810	0.0173682
3822	0.0116707
3834	0.015714
3846	0.0161735
3858	0.0126815
3870	0.0238008
3882	0.018379
3894	0.0142437
3906	0.0126815
3918	0.0137842
3930	0.0141518
3942	0.0224224
3954	0.0091895
3966	0.00992466
