Infrared Spectrum: Benzene, 1,2-dichloro-4-methyl-
Formula: C 7 H 6 Cl 2
CAS: 95-75-0
Origin: Sadtler Research Labs Under US-EPA Contract
1/CM	ABSORBANCE
450	0.0329551
462	0.0282255
474	0.00923049
486	0.00564509
498	0.00488224
510	0.0030514
522	0.00808621
534	0.0317346
546	0.0754459
558	0.0285306
570	0.00747593
582	0.00877278
594	0.00800993
606	0.00556881
618	0.0111376
630	0.060494
642	0.126709
654	0.00656051
666	0.0045771
678	0.0622486
690	0.0979499
702	0.014189
714	0.00495853
726	0.00625537
738	0.00701822
750	0.00587395
762	0.00297512
774	0.00503481
786	0.027844
798	0.174845
810	0.395461
822	0.0981025
834	0.0193764
846	0.0276915
858	0.111071
870	0.258606
882	0.139754
894	0.0166301
906	0.00472967
918	0.00518738
930	0.00785735
942	0.0124345
954	0.0102985
966	0.0110613
978	0.0191475
990	0.0343283
1002	0.0380662
1014	0.0244875
1026	0.145704
1038	0.276991
1050	0.0831507
1062	0.0264709
1074	0.0155621
1086	0.012587
1098	0.015791
1110	0.0252503
1122	0.0974159
1134	0.399428
1146	0.228092
1158	0.0839135
1170	0.0119767
1182	0.00961191
1194	0.011519
1206	0.057824
1218	0.064766
1230	0.0181558
1242	0.0273863
1254	0.049509
1266	0.058892
1278	0.0251741
1290	0.00671308
1302	0.00549252
1314	0.00602652
1326	0.00709451
1338	0.0128159
1350	0.0180795
1362	0.0209784
1374	0.0579766
1386	0.123963
1398	0.119844
1410	0.0852866
1422	0.0764376
1434	0.0490513
1446	0.0448556
1458	0.130905
1470	0.699228
1482	0.55627
1494	0.124497
1506	0.0865072
1518	0.0559932
1530	0.0411939
1542	0.0476018
1554	0.0518738
1566	0.0538572
1578	0.0453896
1590	0.0646897
1602	0.0695719
1614	0.0230381
1626	0.013655
1638	0.00808621
1650	0.00739965
1662	0.00427196
1674	0.0096882
1686	0.00862021
1698	0.00823878
1710	0.00518738
1722	0.00984077
1734	0.0215124
1746	0.0230381
1758	0.0108325
1770	0.0066368
1782	0.00549252
1794	0.00480596
1806	0.0066368
1818	0.0103748
1830	0.00678937
1842	0.00373797
1854	0.00472967
1866	0.00442453
1878	0.0111376
1890	0.020063
1902	0.00976448
1914	0.0045771
1926	0.00297512
1938	0.00183084
1950	0.00122056
1962	0.00030514
1974	0.00030514
1986	0.000991705
1998	0.00144942
2010	0.00167827
2022	0.00228855
2034	0.00144942
2046	0.00061028
2058	0.00061028
2070	0.00015257
2082	0.00114428
2094	0.000533995
2106	0.00129685
2118	0.00160199
2130	0.000991705
2142	0.000991705
2154	0.000686565
2166	0.00114428
2178	7.6285e-05
2190	0.00061028
2202	0.000533995
2214	0.00061028
2226	0.00045771
2238	0.00160199
2250	0.0020597
2262	0.00289883
2274	0.00244112
2286	0.00183084
2298	0.00366168
2310	0.00328026
2322	0.00320397
2334	0.00335654
2346	0.00503481
2358	0.0045771
2370	0.00411939
2382	0.00587395
2394	0.00541624
2406	0.00297512
2418	0.00266998
2430	0.00213598
2442	0.00213598
2454	0.00266998
2466	0.00266998
2478	0.00274626
2490	0.00266998
2502	0.00320397
2514	0.00381425
2526	0.00488224
2538	0.00434825
2550	0.00244112
2562	0.00190713
2574	0.0015257
2586	0.00289883
2598	0.00442453
2610	0.00350911
2622	0.00297512
2634	0.00320397
2646	0.00312769
2658	0.00251741
2670	0.00122056
2682	0.00122056
2694	0.00175456
2706	0.00183084
2718	0.00297512
2730	0.00427196
2742	0.00877278
2754	0.0102222
2766	0.00411939
2778	0.00335654
2790	0.00396682
2802	0.00556881
2814	0.00579766
2826	0.00732336
2838	0.0102985
2850	0.0175456
2862	0.0360828
2874	0.0616383
2886	0.0669782
2898	0.059426
2910	0.0559169
2922	0.078955
2934	0.158673
2946	0.145018
2958	0.066368
2970	0.0467627
2982	0.0375322
2994	0.0471441
3006	0.0627826
3018	0.0614094
3030	0.0665205
3042	0.079489
3054	0.0822352
3066	0.0852866
3078	0.0475256
3090	0.031582
3102	0.0215887
3114	0.00892535
3126	0.00472967
3138	0.00495853
3150	0.00472967
3162	0.00366168
3174	0.00312769
3186	0.00259369
3198	0.00228855
3210	0.00221227
3222	0.00282255
3234	0.00297512
3246	0.00198341
3258	0.00282255
3270	0.00289883
3282	0.00190713
3294	0.00190713
3306	0.00244112
3318	0.0035854
3330	0.00198341
3342	0.00167827
3354	0.00167827
3366	0.00190713
3378	0.00259369
3390	0.00228855
3402	0.00266998
3414	0.00259369
3426	0.00312769
3438	0.00213598
3450	0.0020597
3462	0.000686565
3474	0.00251741
3486	0.00175456
3498	0.0040431
3510	0.000839135
3522	0.0020597
3534	0.00190713
3546	0.00236484
3558	0.00274626
3570	0.00198341
3582	0.00289883
3594	0.00106799
3606	0.00160199
3618	0.00167827
3630	0.00282255
3642	0.00289883
3654	0.0020597
3666	0.00244112
3678	0.00236484
3690	0.0030514
3702	0.0020597
3714	0.00228855
3726	0.0040431
3738	0.00335654
3750	0.00213598
3762	0.00541624
3774	0.00434825
3786	0.00343283
3798	0.00244112
3810	0.00198341
3822	0.00320397
3834	0.00442453
3846	0.00190713
3858	0.00389054
3870	0.00419568
3882	0.0045771
3894	0.0040431
3906	0.00366168
3918	0.00434825
3930	0.00465339
3942	0.00434825
3954	0.00289883
3966	0.00533995
