Infrared Spectrum: Benzenamine, 2,5-dimethyl-
Formula: C 8 H 11 N
CAS: 95-78-3
Origin: Sadtler Research Labs Under US-EPA Contract
1/CM	ABSORBANCE
450	0.0922806
462	0.0856839
474	0.060631
486	0.0555908
498	0.0458068
510	0.0533671
522	0.0621875
534	0.0673019
546	0.0741951
558	0.0678207
570	0.0621875
582	0.0757517
594	0.0586297
606	0.0541825
618	0.0644853
630	0.0859804
642	0.142757
654	0.190936
666	0.183672
678	0.152393
690	0.129564
702	0.110663
714	0.0820519
726	0.064337
738	0.0561837
750	0.0458068
762	0.0374311
774	0.0769376
786	0.193085
798	0.305156
810	0.127785
822	0.0371346
834	0.0426937
846	0.0840532
858	0.0780494
870	0.034318
882	0.0127488
894	0.0103028
906	0.0118594
918	0.0181596
930	0.0280177
942	0.0169737
954	0.00585556
966	0.00956161
978	0.0272765
990	0.0896864
1002	0.0971726
1014	0.0283142
1026	0.0143054
1038	0.0172702
1050	0.0223104
1062	0.0334286
1074	0.0598156
1086	0.055146
1098	0.0389135
1110	0.0291296
1122	0.0191973
1134	0.020235
1146	0.0397289
1158	0.050254
1170	0.027573
1182	0.00289072
1194	0.00163066
1206	0.0212727
1218	0.0450656
1230	0.0288331
1242	0.0145277
1254	0.0217916
1266	0.0871663
1278	0.182782
1290	0.252382
1302	0.214432
1314	0.0839791
1326	0.0111923
1338	0.00689325
1350	0.00541083
1362	0.00548495
1374	0.0180855
1386	0.030019
1398	0.0203092
1410	0.0718232
1422	0.181893
1434	0.205315
1446	0.145574
1458	0.144165
1470	0.152615
1482	0.123041
1494	0.125042
1506	0.234296
1518	0.426492
1530	0.268244
1542	0.0723421
1554	0.0785683
1566	0.126376
1578	0.208799
1590	0.209837
1602	0.165216
1614	0.317757
1626	0.739728
1638	0.616613
1650	0.164326
1662	0.0533671
1674	0.0244599
1686	0.0203092
1698	0.0197162
1710	0.0203092
1722	0.0193456
1734	0.0115629
1746	0.00785683
1758	0.0056332
1770	0.00496611
1782	0.00578144
1794	0.00452138
1806	0.00370605
1818	0.00474374
1830	0.00674501
1842	0.0101546
1854	0.021421
1866	0.0213468
1878	0.00956161
1890	0.00385429
1902	0.00296484
1914	0.00289072
1926	0.00303896
1938	0.00326132
1950	0.00311308
1962	0.00370605
1974	0.00355781
1986	0.0031872
1998	0.00296484
2010	0.00274248
2022	0.00303896
2034	0.00274248
2046	0.00237187
2058	0.00274248
2070	0.00333545
2082	0.000963573
2094	0.00244599
2106	0.00452138
2118	0.00392841
2130	0.00415078
2142	0.00444726
2154	0.00474374
2166	0.00355781
2178	0.00378017
2190	0.00466962
2202	0.00333545
2214	0.00407666
2226	0.00481787
2238	0.00489199
2250	0.00400253
2262	0.00437314
2274	0.00496611
2286	0.00504023
2298	0.00340957
2310	0.00155654
2322	0.000667089
2334	0.00311308
2346	0.00756034
2358	0.00126006
2370	0.0129712
2382	0.0118594
2394	0.00726386
2406	0.00615204
2418	0.00674501
2430	0.00770858
2442	0.00852391
2454	0.00941337
2466	0.00830155
2478	0.00800507
2490	0.00844979
2502	0.00807919
2514	0.00822743
2526	0.00748622
2538	0.00852391
2550	0.00889452
2562	0.009191
2574	0.0100063
2586	0.011044
2598	0.0132677
2610	0.0137865
2622	0.0108217
2634	0.00711562
2646	0.00830155
2658	0.00592968
2670	0.00592968
2682	0.00815331
2694	0.00970985
2706	0.0115629
2718	0.0137124
2730	0.0223104
2742	0.0338733
2754	0.0216433
2766	0.0132677
2778	0.0135641
2790	0.0158619
2802	0.0194197
2814	0.0264612
2826	0.0290554
2838	0.0412854
2850	0.0709338
2862	0.173147
2874	0.27825
2886	0.238966
2898	0.212801
2910	0.236965
2922	0.33058
2934	0.432867
2946	0.304786
2958	0.169959
2970	0.152467
2982	0.169589
2994	0.185154
3006	0.29048
3018	0.341994
3030	0.266317
3042	0.174926
3054	0.16151
3066	0.14587
3078	0.0806436
3090	0.0486975
3102	0.0363193
3114	0.0246082
3126	0.0218657
3138	0.0206798
3150	0.0194938
3162	0.0142312
3174	0.0123782
3186	0.0108958
3198	0.0124523
3210	0.0152689
3222	0.0154913
3234	0.0145277
3246	0.00956161
3258	0.00778271
3270	0.00681913
3282	0.00659677
3294	0.00896864
3306	0.00993221
3318	0.00837567
3330	0.00659677
3342	0.00748622
3354	0.00689325
3366	0.00192715
3378	0.00756034
3390	0.0168996
3402	0.0489199
3414	0.0608533
3426	0.0303896
3438	0.0124523
3450	0.0109699
3462	0.0148983
3474	0.0328356
3486	0.0727868
3498	0.0743434
3510	0.0380982
3522	0.0151948
3534	0.00963573
3546	0.00933925
3558	0.00756034
3570	0.0060038
3582	0.00111182
3594	0.00444726
3606	0.00622616
3618	0.00244599
3630	0.0014083
3642	0.00489199
3654	0.00733798
3666	0.00103769
3678	0.00733798
3690	0.00667089
3702	0.00392841
3714	0.0028166
3726	0.000370605
3738	0.00363193
3750	0.00592968
3762	0.00466962
3774	0.00585556
3786	0.00585556
3798	0.000667089
3810	0.000889452
3822	0.000667089
3834	0.00103769
3846	0.000667089
3858	0.00689325
3870	0.00429902
3882	0.00452138
3894	0.00585556
3906	0.00237187
3918	0.00496611
3930	0.00303896
3942	0.00644853
3954	0.00474374
3966	0.00333545
