Infrared Spectrum: Benzenamine, 3,4-dichloro-
Formula: C 6 H 5 Cl 2 N
CAS: 95-76-1
Origin: Sadtler Research Labs Under US-EPA Contract
1/CM	ABSORBANCE
450	0.0760061
462	0.0321692
474	0.0445036
486	0.0346694
498	0.0240019
510	0.0260021
522	0.0433368
534	0.0337527
546	0.0384197
558	0.0315859
570	0.0656719
582	0.0565045
594	0.0326693
606	0.0302524
618	0.0690889
630	0.173681
642	0.325609
654	0.21035
666	0.117843
678	0.13051
690	0.140928
702	0.151262
714	0.0840901
726	0.0460037
738	0.037003
750	0.0299191
762	0.0350028
774	0.0371696
786	0.0824233
798	0.163346
810	0.142678
822	0.0645052
834	0.0802564
846	0.159179
858	0.104425
870	0.0560878
882	0.0510041
894	0.117093
906	0.128594
918	0.0283356
930	0.0145012
942	0.0131677
954	0.0148345
966	0.0113342
978	0.00608382
990	0.00733392
1002	0.0150012
1014	0.0465037
1026	0.113842
1038	0.0979245
1050	0.0275855
1062	0.0237519
1074	0.0271688
1086	0.0353362
1098	0.0427534
1110	0.0495873
1122	0.136844
1134	0.309525
1146	0.180598
1158	0.0450869
1170	0.0114176
1182	0.00258354
1194	0.00116676
1206	0.00091674
1218	0.00641718
1230	0.0509207
1242	0.0729225
1254	0.0397532
1266	0.0835067
1278	0.16868
1290	0.243186
1302	0.135177
1314	0.0185848
1326	0.00966744
1338	0.00775062
1350	0.0091674
1362	0.0160013
1374	0.0216684
1386	0.0197516
1398	0.0322526
1410	0.0850901
1422	0.108675
1434	0.0724225
1446	0.0406699
1458	0.116759
1470	0.577213
1482	0.757061
1494	0.144428
1506	0.0595881
1518	0.045837
1530	0.0562545
1542	0.0680054
1554	0.0553378
1566	0.0886738
1578	0.104092
1590	0.202099
1602	0.346111
1614	0.322026
1626	0.529542
1638	0.267938
1650	0.0810065
1662	0.04142
1674	0.0327526
1686	0.0315859
1698	0.0231685
1710	0.021335
1722	0.0215851
1734	0.0153346
1746	0.0070839
1758	0.00383364
1770	0.00450036
1782	0.00591714
1794	0.00616716
1806	0.00491706
1818	0.00425034
1830	0.00508374
1842	0.00716724
1854	0.0138344
1866	0.0172514
1878	0.0110842
1890	0.00825066
1902	0.00775062
1914	0.00891738
1926	0.0106675
1938	0.00941742
1950	0.00700056
1962	0.0062505
1974	0.00658386
1986	0.0058338
1998	0.00533376
2010	0.00566712
2022	0.00600048
2034	0.0070839
2046	0.00691722
2058	0.00775062
2070	0.00700056
2082	0.00600048
2094	0.00533376
2106	0.00533376
2118	0.0058338
2130	0.00608382
2142	0.00741726
2154	0.0070839
2166	0.00766728
2178	0.00741726
2190	0.00716724
2202	0.00575046
2214	0.00533376
2226	0.00483372
2238	0.00566712
2250	0.00591714
2262	0.00700056
2274	0.008334
2286	0.00808398
2298	0.0070839
2310	0.00675054
2322	0.0070839
2334	0.0079173
2346	0.00841734
2358	0.008334
2370	0.00783396
2382	0.00650052
2394	0.00608382
2406	0.00600048
2418	0.00683388
2430	0.00616716
2442	0.00641718
2454	0.00616716
2466	0.00566712
2478	0.0062505
2490	0.00641718
2502	0.00766728
2514	0.00908406
2526	0.00941742
2538	0.0087507
2550	0.00841734
2562	0.00941742
2574	0.00925074
2586	0.00900072
2598	0.00741726
2610	0.00683388
2622	0.0070839
2634	0.00641718
2646	0.00691722
2658	0.00675054
2670	0.0075006
2682	0.00816732
2694	0.00925074
2706	0.00891738
2718	0.00925074
2730	0.008334
2742	0.0075006
2754	0.00808398
2766	0.00733392
2778	0.00725058
2790	0.00675054
2802	0.00675054
2814	0.0070839
2826	0.00975078
2838	0.0118343
2850	0.0107509
2862	0.00858402
2874	0.00825066
2886	0.0075006
2898	0.0079173
2910	0.0079173
2922	0.008334
2934	0.0075006
2946	0.00733392
2958	0.00733392
2970	0.00900072
2982	0.0101675
2994	0.0115843
3006	0.012251
3018	0.0135844
3030	0.0224185
3042	0.0470871
3054	0.0489206
3066	0.0474205
3078	0.0357529
3090	0.020835
3102	0.0178348
3114	0.00991746
3126	0.00933408
3138	0.00908406
3150	0.00925074
3162	0.00866736
3174	0.0087507
3186	0.00891738
3198	0.0102508
3210	0.0140845
3222	0.016168
3234	0.0178348
3246	0.0145845
3258	0.0108342
3270	0.00966744
3282	0.00866736
3294	0.00783396
3306	0.00858402
3318	0.00900072
3330	0.00991746
3342	0.00966744
3354	0.0120843
3366	0.0139178
3378	0.0179181
3390	0.0266688
3402	0.0503374
3414	0.0853402
3426	0.0884237
3438	0.0525042
3450	0.0163346
3462	0.0146678
3474	0.0231685
3486	0.0384197
3498	0.050004
3510	0.0450036
3522	0.0383364
3534	0.0150012
3546	0.00808398
3558	0.00633384
3570	0.00725058
3582	0.00616716
3594	0.00733392
3606	0.00641718
3618	0.00691722
3630	0.00600048
3642	0.00616716
3654	0.00600048
3666	0.00600048
3678	0.00783396
3690	0.0079173
3702	0.00725058
3714	0.00850068
3726	0.0105842
3738	0.00991746
3750	0.00925074
3762	0.00908406
3774	0.00925074
3786	0.00800064
3798	0.00683388
3810	0.0070839
3822	0.0079173
3834	0.00966744
3846	0.0144178
3858	0.0132511
3870	0.0155012
3882	0.00891738
3894	0.0115009
3906	0.00741726
3918	0.00741726
3930	0.0087507
3942	0.00825066
3954	0.00900072
3966	0.00600048
