Infrared Spectrum: 1,3-Benzenediamine, 4-methyl-
Formula: C 7 H 10 N 2
CAS: 95-80-7
Origin: Sadtler Research Labs Under US-EPA Contract
1/CM	ABSORBANCE
450	0.0650047
462	0.0455695
474	0.0323919
486	0.0293
498	0.0135457
510	0.00294472
522	0.00603668
534	0.00507964
546	0.0142819
558	0.0233369
570	0.0256927
582	0.0272387
594	0.0299625
606	0.0398273
618	0.0457904
630	0.0630906
642	0.131923
654	0.206425
666	0.212756
678	0.164831
690	0.114476
702	0.0821577
714	0.0573484
726	0.0454223
738	0.0345268
750	0.0238522
762	0.0276067
774	0.0676549
786	0.13369
798	0.0774461
810	0.0566859
822	0.09828
834	0.111384
846	0.0591889
858	0.022748
870	0.0117789
882	0.00566859
894	0.00316557
906	0.0028711
918	0.00596306
930	0.00692009
942	0.0119261
954	0.0169321
966	0.0149445
978	0.017153
990	0.0518271
1002	0.0528577
1014	0.0139874
1026	0.0154598
1038	0.0204658
1050	0.0337907
1062	0.061471
1074	0.0847343
1086	0.0760474
1098	0.052416
1110	0.0372507
1122	0.0269442
1134	0.0435819
1146	0.0692009
1158	0.0417414
1170	0.0363673
1182	0.0788449
1194	0.0677286
1206	0.0692745
1218	0.140095
1230	0.121838
1242	0.0347477
1254	0.00905501
1266	0.0111899
1278	0.0432874
1290	0.0713358
1302	0.0991634
1314	0.141494
1326	0.108292
1338	0.0256927
1350	0.00213492
1362	0.00338643
1374	0.00669924
1386	0.0108955
1398	0.0094231
1410	0.0105274
1422	0.0253246
1434	0.0651519
1446	0.0971021
1458	0.0981328
1470	0.0932004
1482	0.0767836
1494	0.0803172
1506	0.238522
1518	0.425733
1530	0.279159
1542	0.0705997
1554	0.0401218
1566	0.0667715
1578	0.121102
1590	0.17845
1602	0.264215
1614	0.44134
1626	0.635618
1638	0.706144
1650	0.407328
1662	0.0995315
1674	0.0365881
1686	0.021202
1698	0.0143555
1710	0.0128095
1722	0.0114108
1734	0.00986481
1746	0.0118525
1758	0.0133249
1770	0.0113372
1782	0.00986481
1794	0.00795074
1806	0.00743542
1818	0.00846607
1830	0.0124414
1842	0.0148708
1854	0.0108218
1866	0.00633115
1878	0.00596306
1890	0.00537411
1902	0.00456432
1914	0.00390175
1926	0.00456432
1938	0.00404899
1950	0.00493241
1962	0.0053005
1974	0.00390175
1986	0.00265025
1998	0.00176683
2010	0.00117789
2022	0.00147236
2034	0.00220854
2046	0.00309196
2058	0.00434346
2070	0.00434346
2082	0.0036809
2094	0.00279748
2106	0.00213492
2118	0.00213492
2130	0.00191407
2142	0.00139874
2154	0.00154598
2166	0.00235578
2178	0.00265025
2190	0.00228216
2202	0.00132512
2214	0.00036809
2226	0.00036809
2238	0.000809798
2250	0.00125151
2262	0.00176683
2274	0.00176683
2286	0.000883416
2298	0.000588944
2310	0
2322	0.000147236
2334	0.000220854
2346	0.00073618
2358	0.00220854
2370	0.0016196
2382	0.00228216
2394	0.0020613
2406	0.000883416
2418	0.000515326
2430	0.000441708
2442	0.000294472
2454	0.000662562
2466	0.00184045
2478	0.00228216
2490	0.00331281
2502	0.00323919
2514	0.00213492
2526	0.00228216
2538	0.00169321
2550	0.00125151
2562	0.00117789
2574	0.00110427
2586	0.00132512
2598	0.00191407
2610	0.00184045
2622	0.00272387
2634	0.00242939
2646	0.00169321
2658	0.00147236
2670	0.00198769
2682	0.00213492
2694	0.00279748
2706	0.00353366
2718	0.0044907
2730	0.00750904
2742	0.0127359
2754	0.0114844
2766	0.00522688
2778	0.00426984
2790	0.00522688
2802	0.00699371
2814	0.00927587
2826	0.0114108
2838	0.0148708
2850	0.0253246
2862	0.0784032
2874	0.10763
2886	0.0796547
2898	0.0705997
2910	0.0867956
2922	0.108071
2934	0.105863
2946	0.0765627
2958	0.0517535
2970	0.0608085
2982	0.0563914
2994	0.0428457
3006	0.0856177
3018	0.153494
3030	0.136782
3042	0.0777406
3054	0.0640477
3066	0.0507228
3078	0.0304779
3090	0.0198769
3102	0.0154598
3114	0.0116316
3126	0.00912863
3138	0.00787713
3150	0.00633115
3162	0.00596306
3174	0.0044907
3186	0.00500602
3198	0.00603668
3210	0.00920225
3222	0.0100857
3234	0.0102329
3246	0.00765627
3258	0.00507964
3270	0.00397537
3282	0.00301834
3294	0.00294472
3306	0.00390175
3318	0.00412261
3330	0.00515326
3342	0.00603668
3354	0.00728818
3366	0.00876054
3378	0.0117053
3390	0.0229688
3402	0.0535203
3414	0.0585999
3426	0.0287846
3438	0.0144291
3450	0.0120734
3462	0.0181836
3474	0.0330545
3486	0.0622072
3498	0.0640477
3510	0.0305515
3522	0.0122206
3534	0.00699371
3546	0.0044907
3558	0.00316557
3570	0.00301834
3582	0.00228216
3594	0.00235578
3606	0.000957034
3618	0.00073618
3630	0.00154598
3642	0.000662562
3654	0.000515326
3666	0.000515326
3678	0.000662562
3690	0.00147236
3702	0.000441708
3714	0.00103065
3726	0.00228216
3738	0.00110427
3750	0.00139874
3762	0.00242939
3774	0.00132512
3786	0.00073618
3798	0.0016196
3810	0.000441708
3822	0.000220854
3834	0
3846	0.00110427
3858	0.00456432
3870	0.00338643
3882	0.00456432
3894	0.00176683
3906	0.00154598
3918	0.00103065
3930	0.0016196
3942	0.00213492
3954	0.00154598
3966	0.00198769
