Infrared Spectrum: 1,3-Benzenediol, 4-chloro-
Formula: C 6 H 5 Cl O 2
CAS: 95-88-5
Origin: Sadtler Research Labs Under US-EPA Contract
1/CM	ABSORBANCE
450	0.0643545
462	0.00476112
474	0.0436436
486	0.0179336
498	0.0583237
510	0.0677666
522	0.0458655
534	0.0569747
546	0.0449926
558	0.027059
570	0.0249959
582	0.0291222
594	0.0282493
606	0.0391999
618	0.0587998
630	0.120694
642	0.177748
654	0.0656241
666	0.0295983
678	0.0322963
690	0.0315027
702	0.0261862
714	0.02571
726	0.0277732
738	0.0315821
750	0.03674
762	0.0381683
774	0.0691156
786	0.104269
798	0.116092
810	0.0774476
822	0.0710994
834	0.114902
846	0.0964127
858	0.0891123
870	0.0493569
882	0.0234088
894	0.0203935
906	0.021425
918	0.0245198
930	0.0221392
942	0.0274558
954	0.0845892
966	0.210997
978	0.125852
990	0.0285667
1002	0.0244404
1014	0.0310266
1026	0.0368193
1038	0.0391999
1050	0.0782411
1062	0.0814152
1074	0.046659
1086	0.046897
1098	0.0460242
1110	0.0648306
1122	0.183859
1134	0.443578
1146	0.516582
1158	0.308124
1170	0.446831
1182	0.773603
1194	0.363829
1206	0.232581
1218	0.215123
1230	0.12609
1242	0.0947463
1254	0.114346
1266	0.147515
1278	0.115775
1290	0.134343
1302	0.223058
1314	0.27059
1326	0.245118
1338	0.303283
1350	0.198539
1362	0.0501505
1374	0.0283287
1386	0.0269797
1398	0.0249165
1410	0.0240437
1422	0.0295189
1434	0.0511027
1446	0.109982
1458	0.240754
1470	0.283763
1482	0.349546
1494	0.629658
1506	0.350101
1518	0.0606249
1530	0.0485634
1542	0.0661002
1554	0.0662589
1566	0.0696711
1578	0.126487
1590	0.226233
1602	0.355576
1614	0.443657
1626	0.201713
1638	0.09919
1650	0.0666557
1662	0.0350736
1674	0.0278526
1686	0.0197586
1698	0.0219805
1710	0.0221392
1722	0.0217424
1734	0.0186477
1746	0.0104745
1758	0.00698298
1770	0.0107919
1782	0.0113473
1794	0.0129344
1806	0.0153149
1818	0.0172987
1830	0.0148388
1842	0.0114267
1854	0.00912548
1866	0.0097603
1878	0.00769714
1890	0.00722103
1902	0.00404695
1914	0.0041263
1926	0.00372954
1938	0.00230121
1950	0.00134898
1962	0.00119028
1974	0.00103158
1986	0
1998	0.00111093
2010	0.0019838
2022	0.00079352
2034	0.00166639
2046	0.0021425
2058	0.00158704
2070	0.000952224
2082	0.00103158
2094	0.00285667
2106	0.00333278
2118	0.00365019
2130	0.00293602
2142	0.00372954
2154	0.00499918
2166	0.00388825
2178	0.00555464
2190	0.00436436
2202	0.00285667
2214	0.00309473
2226	0.00452306
2238	0.00555464
2250	0.00618946
2262	0.00507853
2274	0.00682427
2286	0.00817326
2298	0.00849066
2310	0.00952224
2322	0.0079352
2334	0.00912548
2346	0.0147595
2358	0.00912548
2370	0.0123789
2382	0.0114267
2394	0.00888742
2406	0.0107125
2418	0.0120615
2430	0.0136485
2442	0.0146801
2454	0.0146801
2466	0.0152356
2478	0.0154736
2490	0.0165846
2502	0.013966
2514	0.0118234
2526	0.011506
2538	0.00912548
2550	0.00904613
2562	0.0104745
2574	0.0119028
2586	0.0119028
2598	0.012617
2610	0.0141247
2622	0.0142834
2634	0.0143627
2646	0.0131724
2658	0.0125376
2670	0.0114267
2682	0.0124583
2694	0.0124583
2706	0.0134898
2718	0.0130931
2730	0.0140453
2742	0.0148388
2754	0.0141247
2766	0.0146801
2778	0.0149975
2790	0.0153149
2802	0.0153149
2814	0.0156323
2826	0.0154736
2838	0.0146801
2850	0.0141247
2862	0.0145214
2874	0.0130931
2886	0.0133311
2898	0.0144421
2910	0.0140453
2922	0.0157117
2934	0.0175368
2946	0.0165846
2958	0.016902
2970	0.0163465
2982	0.0147595
2994	0.0138866
3006	0.013966
3018	0.0172987
3030	0.0243611
3042	0.0381683
3054	0.0326137
3066	0.0249165
3078	0.0242817
3090	0.024123
3102	0.0212663
3114	0.0180129
3126	0.0159498
3138	0.0136485
3150	0.0146801
3162	0.0149975
3174	0.0144421
3186	0.0153943
3198	0.0145214
3210	0.0130137
3222	0.012855
3234	0.0153149
3246	0.0146801
3258	0.0145214
3270	0.0122996
3282	0.0116647
3294	0.00880807
3306	0.0102364
3318	0.0132518
3330	0.0164259
3342	0.0172987
3354	0.0167433
3366	0.0158704
3378	0.0178542
3390	0.0249959
3402	0.012855
3414	0.00872872
3426	0.0148388
3438	0.0142834
3450	0.0153943
3462	0.0201554
3474	0.0130931
3486	0.00253926
3498	0.0103158
3510	0.0141247
3522	0.0145214
3534	0.016902
3546	0.0195999
3558	0.0391999
3570	0.335103
3582	0.386841
3594	0.0609423
3606	0.0185684
3618	0.0210283
3630	0.0291222
3642	0.128312
3654	0.303998
3666	0.183541
3678	0.0286461
3690	0.0108712
3702	0.0133311
3714	0.0131724
3726	0.0144421
3738	0.0316614
3750	0.0537213
3762	0.0256307
3774	0.0149182
3786	0.02571
3798	0.0249165
3810	0.0366606
3822	0.0670524
3834	0.0460242
3846	0.0187271
3858	0.0337246
3870	0.041025
3882	0.0450719
3894	0.0473731
3906	0.0504679
3918	0.0467383
3930	0.0292015
3942	0.042374
3954	0.0641164
3966	0.050944
