Infrared Spectrum: Benzenamine, 2,5-dichloro-
Formula: C 6 H 5 Cl 2 N
CAS: 95-82-9
Origin: Sadtler Research Labs Under US-EPA Contract
1/CM	ABSORBANCE
450	0.0443057
462	0.0706169
474	0.0325866
486	0.0154238
498	0.0086192
510	0.0113411
522	0.0227577
534	0.0285038
546	0.035006
558	0.0356109
570	0.102674
582	0.185388
594	0.0725071
606	0.0390132
618	0.0352329
630	0.0411302
642	0.0635099
654	0.075607
666	0.0903504
678	0.0955672
690	0.120896
702	0.125281
714	0.126566
726	0.127549
738	0.104716
750	0.0874773
762	0.0669878
774	0.0947356
786	0.190983
798	0.180398
810	0.0843018
822	0.0532273
834	0.112125
846	0.199829
858	0.107589
870	0.0489933
882	0.0492958
894	0.0875529
906	0.261449
918	0.140931
930	0.0245723
942	0.0114923
954	0.0120971
966	0.0113411
978	0.00914845
990	0.0104338
1002	0.0075607
1014	0.0187505
1026	0.0535298
1038	0.112881
1050	0.145241
1062	0.0906528
1074	0.161799
1086	0.666476
1098	0.599639
1110	0.0735656
1122	0.040601
1134	0.0550419
1146	0.0468007
1158	0.036367
1170	0.0267649
1182	0.0212456
1194	0.0154238
1206	0.0152726
1218	0.0270673
1230	0.0424155
1242	0.0581418
1254	0.11772
1266	0.113789
1278	0.0636611
1290	0.0659293
1302	0.0640391
1314	0.0116435
1326	0.00567053
1338	0.00899723
1350	0.0123239
1362	0.0207919
1374	0.0244211
1386	0.0210944
1398	0.056176
1410	0.167545
1422	0.226519
1434	0.135639
1446	0.0421131
1458	0.0579906
1470	0.219714
1482	0.734144
1494	0.402305
1506	0.106228
1518	0.0803702
1530	0.0345524
1542	0.0344768
1554	0.0501274
1566	0.126339
1578	0.225536
1590	0.273017
1602	0.364728
1614	0.646667
1626	0.606822
1638	0.289726
1650	0.124827
1662	0.0558736
1674	0.0423399
1686	0.0386352
1698	0.03425
1710	0.0285794
1722	0.0220016
1734	0.0185237
1746	0.0151214
1758	0.0096777
1770	0.00884602
1782	0.00839238
1794	0.0114167
1806	0.00907284
1818	0.0054437
1830	0.00816556
1842	0.0136093
1854	0.0168604
1866	0.0119459
1878	0.0032511
1890	0.00287307
1902	0.002117
1914	0.0032511
1926	0.00332671
1938	0.00347792
1950	0.00347792
1962	0.00415838
1974	0.00385596
1986	0.00378035
1998	0.00423399
2010	0.00309989
2022	0.00287307
2034	0.00196578
2046	0.00272185
2058	0.00226821
2070	0.0021926
2082	0.00136093
2094	0.00143653
2106	0.00173896
2118	0.00241942
2130	0.0021926
2142	0.002117
2154	0.00279746
2166	0.00317549
2178	0.00438521
2190	0.00499006
2202	0.00400717
2214	0.00173896
2226	0.00128532
2238	0.00173896
2250	0.00128532
2262	0.00196578
2274	0.00294867
2286	0.00559492
2298	0.00786313
2310	0.00945087
2322	0.00793873
2334	0.00476324
2346	0.00854359
2358	0.00529249
2370	0.00476324
2382	0.00627538
2394	0.00264624
2406	0.000831677
2418	0.000604856
2430	0.000604856
2442	0.000529249
2454	0.000831677
2466	0.000604856
2478	0.000529249
2490	0.000529249
2502	0.0011341
2514	0.00249503
2526	0.00370474
2538	0.00415838
2550	0.0065022
2562	0.00574613
2574	0.00279746
2586	0.00128532
2598	0.000907284
2610	0.000907284
2622	0.000151214
2634	0.00128532
2646	0.00234382
2658	0.00423399
2670	0.00279746
2682	0.00279746
2694	0.0032511
2706	0.00582174
2718	0.00582174
2730	0.00347792
2742	0.00257064
2754	0.00332671
2766	0.0032511
2778	0.00272185
2790	0.00151214
2802	0.00181457
2814	0.00257064
2826	0.00362914
2838	0.00438521
2850	0.00415838
2862	0.00521688
2874	0.00506567
2886	0.00385596
2898	0.00378035
2910	0.00362914
2922	0.00332671
2934	0.00347792
2946	0.00385596
2958	0.00340231
2970	0.00241942
2982	0.00340231
2994	0.00400717
3006	0.00499006
3018	0.00589735
3030	0.00914845
3042	0.0130044
3054	0.0137605
3066	0.0138361
3078	0.0142897
3090	0.0187505
3102	0.0131556
3114	0.00551931
3126	0.00347792
3138	0.0043096
3150	0.00453642
3162	0.00582174
3174	0.0075607
3186	0.00998012
3198	0.00998012
3210	0.00899723
3222	0.00816556
3234	0.00635099
3246	0.00438521
3258	0.00340231
3270	0.00355353
3282	0.00340231
3294	0.00415838
3306	0.00340231
3318	0.00415838
3330	0.00423399
3342	0.00438521
3354	0.0054437
3366	0.00665342
3378	0.00998012
3390	0.0207919
3402	0.0677439
3414	0.145241
3426	0.122408
3438	0.058293
3450	0.0191286
3462	0.0136093
3474	0.0166335
3486	0.0356109
3498	0.0831677
3510	0.110159
3522	0.0816556
3534	0.0553443
3546	0.019431
3558	0.00877041
3570	0.00703145
3582	0.00476324
3594	0.0043096
3606	0.00287307
3618	0.00415838
3630	0.00461203
3642	0.00506567
3654	0.002117
3666	0.00378035
3678	0
3690	0.00340231
3702	0.00241942
3714	0.00257064
3726	0.000302428
3738	0.0011341
3750	0.00385596
3762	0.00362914
3774	0.00347792
3786	0.00453642
3798	0.00604856
3810	0.00317549
3822	0.00559492
3834	0.00574613
3846	0.00831677
3858	0.00929966
3870	0.00491445
3882	0.00627538
3894	0.00559492
3906	0.00143653
3918	0.00665342
3930	0.00362914
3942	0.00718266
3954	0.0053681
3966	0.0086192
