Infrared Spectrum: Ethanedioic acid, diethyl ester
Formula: C 6 H 10 O 4
CAS: 95-92-1
Origin: Sadtler Research Labs Under US-EPA Contract
1/CM	ABSORBANCE
450	0.0192214
462	0.0137596
474	0.0160704
486	0.00588196
498	0.0133394
510	0.00945315
522	0.0087179
534	0.0122891
546	0.0184862
558	0.014915
570	0.01502
582	0.0145999
594	0.0190113
606	0.0193264
618	0.0141797
630	0.00924308
642	0.0160704
654	0.0103985
666	0.0162804
678	0.0127092
690	0.0121841
702	0.0169106
714	0.0201667
726	0.0167006
738	0.00745748
750	0.0473708
762	0.0460053
774	0.0385478
786	0.0287796
798	0.026994
810	0.0251034
822	0.0274141
834	0.0219523
846	0.0171207
858	0.0374975
870	0.0594498
882	0.0474758
894	0.021112
906	0.0195365
918	0.0215322
930	0.0163855
942	0.0148099
954	0.0113438
966	0.0115538
978	0.0200617
990	0.0252084
1002	0.0698483
1014	0.159338
1026	0.127933
1038	0.0663821
1050	0.0469506
1062	0.0355018
1074	0.0383378
1086	0.0518873
1098	0.108816
1110	0.164695
1122	0.188853
1134	0.321827
1146	0.737031
1158	1.05035
1170	0.943634
1182	0.847422
1194	0.517087
1206	0.187172
1218	0.104615
1230	0.0662771
1242	0.0484211
1254	0.0466355
1266	0.0555635
1278	0.0906452
1290	0.1648
1302	0.265739
1314	0.278553
1326	0.177299
1338	0.0803518
1350	0.0379176
1362	0.0415939
1374	0.0613404
1386	0.0701634
1398	0.0627059
1410	0.0386529
1422	0.0284645
1434	0.0296199
1446	0.0395982
1458	0.0470557
1470	0.0535679
1482	0.0436946
1494	0.0252084
1506	0.0145999
1518	0.0103985
1530	0.00693231
1542	0.00955819
1554	0.00745748
1566	0.00588196
1578	0.00682727
1590	0.00609203
1602	0.00756252
1614	0.00892797
1626	0.0100834
1638	0.0113438
1650	0.0126042
1662	0.00850784
1674	0.011869
1686	0.0156502
1698	0.0194315
1710	0.0280443
1722	0.0524125
1734	0.111862
1746	0.29935
1758	0.634727
1770	0.616555
1782	0.436315
1794	0.380437
1806	0.172678
1818	0.0602901
1830	0.0344515
1842	0.0205869
1854	0.0137596
1866	0.00997832
1878	0.0084028
1890	0.00861287
1902	0.00745748
1914	0.00556685
1926	0.00441147
1938	0.00336112
1950	0.00262588
1962	0.00241581
1974	0.00220573
1986	0.00199567
1998	0.00189063
2010	0.00283594
2022	0.00378126
2034	0.00378126
2046	0.00378126
2058	0.00357119
2070	0.00304602
2082	0.00262588
2094	0.00252084
2106	0.0021007
2118	0.00147049
2130	0.00168056
2142	0.00189063
2154	0.00189063
2166	0.00168056
2178	0.00252084
2190	0.00189063
2202	0.00136546
2214	0.00063021
2226	0.000105035
2238	0.00063021
2250	0.000945315
2262	0.00126042
2274	0.00115539
2286	0.00105035
2298	0.00115539
2310	0.00136546
2322	0.00157552
2334	0.000315105
2346	0.00157552
2358	0.00021007
2370	0.000735245
2382	0.00063021
2394	0.000525175
2406	0.00157552
2418	0.0021007
2430	0.00199567
2442	0.00262588
2454	0.00357119
2466	0.00462154
2478	0.00462154
2490	0.0038863
2502	0.00315105
2514	0.00220573
2526	0.00189063
2538	0.00147049
2550	0.00157552
2562	0.00136546
2574	0.00189063
2586	0.00147049
2598	0.00115539
2610	0.00147049
2622	0.00136546
2634	0.00168056
2646	0.00147049
2658	0.00168056
2670	0.0017856
2682	0.00199567
2694	0.0017856
2706	0.00136546
2718	0.00157552
2730	0.0021007
2742	0.00294098
2754	0.00273091
2766	0.00304602
2778	0.00441147
2790	0.00535679
2802	0.00472658
2814	0.00504168
2826	0.00703735
2838	0.00777259
2850	0.00850784
2862	0.0117639
2874	0.0186962
2886	0.032876
2898	0.0358169
2910	0.0447449
2922	0.0499967
2934	0.0523074
2946	0.0860237
2958	0.0786712
2970	0.0774108
2982	0.138646
2994	0.212171
3006	0.123626
3018	0.0716339
3030	0.030145
3042	0.0141797
3054	0.00850784
3066	0.00651217
3078	0.00567189
3090	0.00493664
3102	0.00399133
3114	0.0038863
3126	0.00294098
3138	0.00367622
3150	0.00346615
3162	0.00346615
3174	0.00346615
3186	0.00252084
3198	0.00304602
3210	0.00262588
3222	0.00220573
3234	0.00220573
3246	0.00147049
3258	0.00126042
3270	0.00136546
3282	0.00168056
3294	0.00115539
3306	0.0017856
3318	0.0017856
3330	0.00105035
3342	0.00147049
3354	0.00220573
3366	0.00189063
3378	0.0021007
3390	0.00115539
3402	0.00189063
3414	0.00105035
3426	0.00147049
3438	0.00115539
3450	0.000945315
3462	0.00157552
3474	0.00199567
3486	0.00357119
3498	0.00556685
3510	0.00913804
3522	0.0087179
3534	0.00472658
3546	0.00220573
3558	0.00273091
3570	0.00357119
3582	0.00063021
3594	0.0021007
3606	0.000315105
3618	0.000735245
3630	0.00189063
3642	0.00084028
3654	0.00346615
3666	0.00157552
3678	0.00189063
3690	0.0021007
3702	0.000525175
3714	0.00136546
3726	0.00105035
3738	0.0021007
3750	0.00367622
3762	0.000945315
3774	0.00199567
3786	0.000105035
3798	0.00283594
3810	0.00157552
3822	0.00430643
3834	0.00346615
3846	0.00147049
3858	0.00504168
3870	0.0038863
3882	0.00262588
3894	0.00294098
3906	0.00315105
3918	0.00294098
3930	0.00367622
3942	0.00252084
3954	0.00325609
3966	0.00157552
