Infrared Spectrum: Phenol, 2,4,5-trichloro-
Formula: C 6 H 3 Cl 3 O
CAS: 95-95-4
Origin: Sadtler Research Labs Under US-EPA Contract
1/CM	ABSORBANCE
450	0.00085059
462	0.00552884
474	0.0170118
486	0.0148003
498	0.00612425
510	0.0177773
522	0.0437203
534	0.0485687
546	0.0222855
558	0.0607321
570	0.0799555
582	0.025943
594	0.017267
606	0.0219452
618	0.018713
630	0.0294304
642	0.0267936
654	0.0223705
666	0.0767232
678	0.229489
690	0.0458468
702	0.0409134
714	0.0638793
726	0.20159
738	0.215454
750	0.0369156
762	0.0518009
774	0.0296005
786	0.015821
798	0.0200739
810	0.00961167
822	0.00697484
834	0.0200739
846	0.0206693
858	0.0629437
870	0.161867
882	0.138136
894	0.0373409
906	0.0223705
918	0.0262832
930	0.0494193
942	0.0535021
954	0.0213498
966	0.0183727
978	0.0250924
990	0.0212647
1002	0.0161612
1014	0.0106324
1026	0.00484836
1038	0.0147152
1050	0.0401478
1062	0.113384
1074	0.320672
1086	0.130736
1098	0.0284097
1110	0.0776589
1122	0.167141
1134	0.120188
1146	0.0391271
1158	0.0272189
1170	0.0865901
1182	0.355972
1194	0.413727
1206	0.133032
1218	0.119933
1230	0.113554
1242	0.096627
1254	0.0938201
1266	0.134053
1278	0.212733
1290	0.458893
1302	0.251094
1314	0.0640494
1326	0.0286649
1338	0.0165865
1350	0.0182877
1362	0.0375961
1374	0.0410835
1386	0.0483135
1398	0.105218
1410	0.0324075
1422	0.0148853
1434	0.0397226
1446	0.264533
1458	0.85059
1470	0.486367
1482	0.29592
1494	0.181091
1506	0.0862498
1518	0.0414237
1530	0.0298557
1542	0.0421893
1554	0.0946707
1566	0.131756
1578	0.0529918
1590	0.0638793
1602	0.0972224
1614	0.0269637
1626	0.00859096
1638	0.00586907
1650	0.00467825
1662	0.00535872
1674	0.00731507
1686	0.00527366
1698	0.00586907
1710	0.0126738
1722	0.0243269
1734	0.0166716
1746	0.00927143
1758	0.00918637
1770	0.00578401
1782	0.00527366
1794	0.00578401
1806	0.00595413
1818	0.00535872
1830	0.00425295
1842	0.00501848
1854	0.00535872
1866	0.0047633
1878	0.00425295
1890	0.00391271
1902	0.0033173
1914	0.00399777
1926	0.00467825
1938	0.00348742
1950	0.0037426
1962	0.00433801
1974	0.0047633
1986	0.00629437
1998	0.00578401
2010	0.00433801
2022	0.00365754
2034	0.00314718
2046	0.00272189
2058	0.00306212
2070	0.00229659
2082	0.00297707
2094	0.00238165
2106	0.00255177
2118	0.00314718
2130	0.00323224
2142	0.0037426
2154	0.00255177
2166	0.0033173
2178	0.00348742
2190	0.00459319
2202	0.00348742
2214	0.00348742
2226	0.00289201
2238	0.00229659
2250	0.00229659
2262	0.00255177
2274	0.00297707
2286	0.00459319
2298	0.00510354
2310	0.00620931
2322	0.00450813
2334	0.0047633
2346	0.0033173
2358	0.00391271
2370	0.00382766
2382	0.00646448
2394	0.0037426
2406	0.00255177
2418	0.00306212
2430	0.0033173
2442	0.00238165
2454	0.00289201
2466	0.00348742
2478	0.00289201
2490	0.00340236
2502	0.00365754
2514	0.00425295
2526	0.00535872
2538	0.00569895
2550	0.00382766
2562	0.00314718
2574	0.00246671
2586	0.00238165
2598	0.00085059
2610	0.00136094
2622	0.00085059
2634	0.0018713
2646	0.00212648
2658	0.00246671
2670	0.00289201
2682	0.00297707
2694	0.00263683
2706	0.00221153
2718	0.00229659
2730	0.00246671
2742	0.00501848
2754	0.00535872
2766	0.00433801
2778	0.00314718
2790	0.00246671
2802	0.00297707
2814	0.00399777
2826	0.00391271
2838	0.00425295
2850	0.00340236
2862	0.00535872
2874	0.0047633
2886	0.0033173
2898	0.0033173
2910	0.00221153
2922	0.00238165
2934	0.00289201
2946	0.00391271
2958	0.00229659
2970	0.0037426
2982	0.00272189
2994	0.00297707
3006	0.00450813
3018	0.00535872
3030	0.00569895
3042	0.00603919
3054	0.00467825
3066	0.00501848
3078	0.00493342
3090	0.00595413
3102	0.00765531
3114	0.0051886
3126	0.0047633
3138	0.00382766
3150	0.00450813
3162	0.0047633
3174	0.00527366
3186	0.0070599
3198	0.00501848
3210	0.00595413
3222	0.00637943
3234	0.00552884
3246	0.00391271
3258	0.0051886
3270	0.00493342
3282	0.00671966
3294	0.00901625
3306	0.00671966
3318	0.00425295
3330	0.00365754
3342	0.00408283
3354	0.00510354
3366	0.00552884
3378	0.00723002
3390	0.0047633
3402	0.00340236
3414	0.00416789
3426	0.00323224
3438	0.00578401
3450	0.00450813
3462	0.00399777
3474	0.00408283
3486	0.0047633
3498	0.00272189
3510	0.00501848
3522	0.00348742
3534	0.00646448
3546	0.0120784
3558	0.0238165
3570	0.217666
3582	0.527366
3594	0.0666863
3606	0.0125037
3618	0.0080806
3630	0.00654954
3642	0.0182877
3654	0.0242418
3666	0.00740013
3678	0.00221153
3690	0.000935649
3702	0.00178624
3714	0.00246671
3726	0.001446
3738	0.00212648
3750	0.00161612
3762	0.001446
3774	0.00433801
3786	0.00238165
3798	0.00246671
3810	0.00348742
3822	0.00416789
3834	0.00272189
3846	0.00416789
3858	0.00799555
3870	0.00654954
3882	0.00688978
3894	0.00757025
3906	0.0080806
3918	0.00927143
3930	0.00884614
3942	0.0102921
3954	0
3966	0.00085059
