Infrared Spectrum: Benzene, 1,2,4,5-tetramethyl-
Formula: C 10 H 14
CAS: 95-93-2
Origin: Sadtler Research Labs Under US-EPA Contract
1/CM	ABSORBANCE
450	0.0322672
462	0.0109478
474	0.00532985
486	0.00453758
498	0.00554593
510	0.00705845
522	0.00727453
534	0.00705845
546	0.00813883
558	0.00561795
570	0.00417745
582	0.00043215
594	0.00677035
606	0.0046096
618	0.0005762
630	0.0020167
642	0.00396138
654	0.0074906
666	0.0112359
678	0.00684238
690	0.00072025
702	0.0020167
714	0.00324113
726	0.00180063
738	0.00352922
750	0.00237682
762	0.00381733
774	0.00424947
786	0.00741858
798	0.0103716
810	0.0121722
822	0.0089311
834	0.0113799
846	0.0310428
858	0.0907515
870	0.132742
882	0.0512818
894	0.0126044
906	0.0110919
918	0.0108758
930	0.0095073
942	0.00957932
954	0.0092192
966	0.0128925
978	0.0226879
990	0.0553152
1002	0.0960093
1014	0.0710167
1026	0.0487609
1038	0.0301064
1050	0.0178622
1062	0.0124603
1074	0.0122442
1086	0.00914718
1098	0.00741858
1110	0.0080668
1122	0.00857097
1134	0.00914718
1146	0.0105156
1158	0.0105156
1170	0.0121002
1182	0.017286
1194	0.0427108
1206	0.0492651
1218	0.022976
1230	0.0106597
1242	0.00929123
1254	0.0119562
1266	0.0133967
1278	0.0167818
1290	0.0147651
1302	0.0136848
1314	0.0157735
1326	0.0193747
1338	0.0236242
1350	0.0281618
1362	0.0343559
1374	0.037309
1386	0.0459519
1398	0.0498413
1410	0.040406
1422	0.0468883
1434	0.072025
1446	0.136127
1458	0.226303
1470	0.193027
1482	0.115744
1494	0.147219
1506	0.264548
1518	0.170555
1530	0.0651826
1542	0.0473204
1554	0.0414864
1566	0.0396138
1578	0.0332756
1590	0.0236242
1602	0.0203111
1614	0.0180063
1626	0.0118841
1638	0.00929123
1650	0.0054739
1662	0.00532985
1674	0.00511378
1686	0.00626618
1698	0.0102996
1710	0.0254969
1722	0.0331315
1734	0.0254248
1746	0.0169979
1758	0.00727453
1770	0.00388935
1782	0.00446555
1794	0.0034572
1806	0.00388935
1818	0.002881
1830	0.00180063
1842	0.0025929
1854	0.00194468
1866	0.00266493
1878	0.00504175
1890	0.0074906
1902	0.00727453
1914	0.0046096
1926	0.00302505
1938	0.00194468
1950	0.00151253
1962	0.000648225
1974	0.000792275
1986	0.00072025
1998	0.0002881
2010	0.0005762
2022	0.00100835
2034	0.00216075
2046	0.002881
2058	0.00194468
2070	0.0017286
2082	0.0014405
2094	0.00100835
2106	0.000792275
2118	0.00136848
2130	0.0014405
2142	0.00122443
2154	0.000936325
2166	0.0014405
2178	0.00151253
2190	0.0014405
2202	0.000792275
2214	0.00100835
2226	0.00108037
2238	0.00151253
2250	0.00122443
2262	0.000648225
2274	0.000936325
2286	0.00187265
2298	0.00122443
2310	0.000936325
2322	0.0002881
2334	0.00014405
2346	0.00158455
2358	0.000216075
2370	0.000792275
2382	0.00194468
2394	0.0020167
2406	0.00280898
2418	0.0031691
2430	0.00446555
2442	0.0043215
2454	0.00468163
2466	0.0051858
2478	0.00439353
2490	0.00338518
2502	0.00273695
2514	0.00194468
2526	0.00208873
2538	0.00180063
2550	0.0014405
2562	0.00187265
2574	0.00244885
2586	0.00295303
2598	0.00223278
2610	0.00187265
2622	0.0023048
2634	0.00367328
2646	0.00532985
2658	0.0054739
2670	0.00468163
2682	0.00453758
2694	0.0060501
2706	0.00871502
2718	0.0132526
2730	0.0229039
2742	0.0278017
2754	0.0256409
2766	0.0272975
2778	0.0218956
2790	0.0208872
2802	0.0242004
2814	0.0319071
2826	0.0454478
2838	0.0684958
2850	0.106381
2862	0.1949
2874	0.361854
2886	0.378347
2898	0.308195
2910	0.296239
2922	0.481775
2934	0.72025
2946	0.565468
2958	0.394337
2970	0.377195
2982	0.331243
2994	0.284715
3006	0.414
3018	0.349105
3030	0.144554
3042	0.10883
3054	0.103068
3066	0.0882306
3078	0.0649665
3090	0.0454478
3102	0.0350762
3114	0.0320511
3126	0.0322672
3138	0.0245605
3150	0.0133246
3162	0.00727453
3174	0.0048977
3186	0.00424947
3198	0.0037453
3210	0.00331315
3222	0.00237682
3234	0.00252088
3246	0.00223278
3258	0.00237682
3270	0.00302505
3282	0.00367328
3294	0.00252088
3306	0.00309707
3318	0.00223278
3330	0.00194468
3342	0.00216075
3354	0.0023048
3366	0.00208873
3378	0.00194468
3390	0.00216075
3402	0.0023048
3414	0.00208873
3426	0.00237682
3438	0.0020167
3450	0.00252088
3462	0.0017286
3474	0.0011524
3486	0.00158455
3498	0.0020167
3510	0.0014405
3522	0.00194468
3534	0.0023048
3546	0.0025929
3558	0.00244885
3570	0.00208873
3582	0.0002881
3594	0.0023048
3606	0.00158455
3618	0.00100835
3630	0.00266493
3642	0.00223278
3654	0.00424947
3666	0.00072025
3678	0.00324113
3690	0.00252088
3702	0.000936325
3714	0.00237682
3726	0.00216075
3738	0.0048977
3750	0.00180063
3762	7.2025e-05
3774	0.00136848
3786	0.000504175
3798	0.00122443
3810	7.2025e-05
3822	0.00187265
3834	0.0031691
3846	0.0025929
3858	0.00388935
3870	0.00482567
3882	0.00324113
3894	0.00554593
3906	0.0025929
3918	0.00482567
3930	0.00381733
3942	0.00338518
3954	0.00453758
3966	0.00216075
