Infrared Spectrum: Benzene, 1,2,4,5-tetrachloro-
Formula: C 6 H 2 Cl 4
CAS: 95-94-3
Origin: Sadtler Research Labs Under US-EPA Contract
1/CM	ABSORBANCE
450	0
462	0.0557543
474	0.0617789
486	0.0541113
498	0.10165
510	0.145684
522	0.0882868
534	0.0738279
546	0.072623
558	0.0587118
570	0.0688988
582	0.072404
594	0.0782094
606	0.0739375
618	0.0715277
630	0.0897108
642	0.482949
654	0.319519
666	0.0868628
678	0.0750328
690	0.077114
702	0.07098
714	0.0691178
726	0.0765664
738	0.0839053
750	0.0924492
762	0.0755805
774	0.0730612
786	0.0778808
798	0.0773331
810	0.0836863
822	0.100555
834	0.0729516
846	0.0682416
858	0.0743756
870	0.140536
882	0.291149
894	0.117205
906	0.0762378
918	0.0684606
930	0.071199
942	0.0787571
954	0.0793048
966	0.0728421
978	0.0706514
990	0.0706514
1002	0.0732803
1014	0.074047
1026	0.0779903
1038	0.0821528
1050	0.161458
1062	0.615817
1074	0.340989
1086	0.0978165
1098	0.0995691
1110	0.266504
1122	0.546918
1134	0.11348
1146	0.0821528
1158	0.08281
1170	0.0809478
1182	0.0782094
1194	0.078538
1206	0.0854389
1218	0.138564
1230	0.107784
1242	0.104498
1254	0.0896013
1266	0.0882868
1278	0.0931065
1290	0.109318
1302	0.124763
1314	0.224113
1326	0.285125
1338	0.129911
1350	0.088725
1362	0.105046
1374	0.104827
1386	0.0866438
1398	0.0880677
1410	0.090368
1422	0.131992
1434	0.574193
1446	1.04268
1458	0.161567
1470	0.299146
1482	0.256207
1494	0.104608
1506	0.104498
1518	0.085877
1530	0.0767854
1542	0.0763473
1554	0.0748138
1566	0.0742661
1578	0.0757996
1590	0.0829195
1602	0.0675843
1614	0.0558639
1626	0.0678034
1638	0.0635315
1650	0.0625456
1662	0.0688988
1674	0.0637505
1686	0.0674748
1698	0.0657222
1710	0.0632028
1722	0.0707609
1734	0.0981452
1746	0.08281
1758	0.0675843
1770	0.0647364
1782	0.0653936
1794	0.0661603
1806	0.0691178
1818	0.0640791
1830	0.0610121
1842	0.0634219
1854	0.0594786
1866	0.0606835
1878	0.0601358
1890	0.0610121
1902	0.0594786
1914	0.0612312
1926	0.0599167
1938	0.0587118
1950	0.0594786
1962	0.0586023
1974	0.0584928
1986	0.0584928
1998	0.0590404
2010	0.0579451
2022	0.0583832
2034	0.0579451
2046	0.0581641
2058	0.0581641
2070	0.0584928
2082	0.0584928
2094	0.0584928
2106	0.0576165
2118	0.0586023
2130	0.0592595
2142	0.0572879
2154	0.0580546
2166	0.0579451
2178	0.0584928
2190	0.0588214
2202	0.0580546
2214	0.0570688
2226	0.0565211
2238	0.0572879
2250	0.0568497
2262	0.0568497
2274	0.0571783
2286	0.0581641
2298	0.0581641
2310	0.0573974
2322	0.0537827
2334	0.0537827
2346	0.0537827
2358	0.0537827
2370	0.0545494
2382	0.0580546
2394	0.0569592
2406	0.0566306
2418	0.056302
2430	0.0561925
2442	0.056302
2454	0.0565211
2466	0.0567402
2478	0.0569592
2490	0.0576165
2502	0.0571783
2514	0.0575069
2526	0.0576165
2538	0.0573974
2550	0.0576165
2562	0.0571783
2574	0.0576165
2586	0.0579451
2598	0.0572879
2610	0.0579451
2622	0.0582737
2634	0.0580546
2646	0.0586023
2658	0.0589309
2670	0.060793
2682	0.0599167
2694	0.0584928
2706	0.0584928
2718	0.0590404
2730	0.0589309
2742	0.0596977
2754	0.0611216
2766	0.0618884
2778	0.0625456
2790	0.0609026
2802	0.0584928
2814	0.0588214
2826	0.0586023
2838	0.0580546
2850	0.0579451
2862	0.0588214
2874	0.0584928
2886	0.0587118
2898	0.0581641
2910	0.0586023
2922	0.0584928
2934	0.0581641
2946	0.0586023
2958	0.0586023
2970	0.0599167
2982	0.0599167
2994	0.0598072
3006	0.0599167
3018	0.0610121
3030	0.0599167
3042	0.0603549
3054	0.0598072
3066	0.0594786
3078	0.0600263
3090	0.0659413
3102	0.0671462
3114	0.0587118
3126	0.0575069
3138	0.0584928
3150	0.0582737
3162	0.0579451
3174	0.0588214
3186	0.0584928
3198	0.0580546
3210	0.0581641
3222	0.0587118
3234	0.0584928
3246	0.0584928
3258	0.0584928
3270	0.0588214
3282	0.0593691
3294	0.0593691
3306	0.0595881
3318	0.0589309
3330	0.0599167
3342	0.0609026
3354	0.0595881
3366	0.0599167
3378	0.0617789
3390	0.0617789
3402	0.0623266
3414	0.0604644
3426	0.0587118
3438	0.0600263
3450	0.0592595
3462	0.0609026
3474	0.0601358
3486	0.0619979
3498	0.0600263
3510	0.0611216
3522	0.0611216
3534	0.0614503
3546	0.0627647
3558	0.0626552
3570	0.0633124
3582	0.0617789
3594	0.065065
3606	0.0594786
3618	0.0606835
3630	0.0616693
3642	0.062217
3654	0.0665985
3666	0.0603549
3678	0.0589309
3690	0.0644078
3702	0.0600263
3714	0.0642982
3726	0.0640791
3738	0.0601358
3750	0.0656127
3762	0.0611216
3774	0.0644078
3786	0.0663794
3798	0.0656127
3810	0.0586023
3822	0.062217
3834	0.0624361
3846	0.0641887
3858	0.065065
3870	0.0627647
3882	0.0682416
3894	0.0624361
3906	0.0691178
3918	0.0661603
3930	0.0674748
3942	0.0662699
3954	0.0673653
3966	0.0680225
