Infrared Spectrum: Oxirane, phenyl-
Formula: C 8 H 8 O
CAS: 96-09-3
Origin: Sadtler Research Labs Under US-EPA Contract
1/CM	ABSORBANCE
450	0.00498226
462	0.00249113
474	0.003134
486	0.0126164
498	0.026197
510	0.0809215
522	0.12086
534	0.140628
546	0.0717606
558	0.0658944
570	0.114913
582	0.103502
594	0.0377687
606	0.0108485
618	0.0107681
630	0.0098038
642	0.0127771
654	0.0249916
666	0.0765821
678	0.239872
690	0.513735
702	0.532378
714	0.260444
726	0.143441
738	0.346588
750	0.655971
762	0.450894
774	0.176067
786	0.0681444
798	0.0773054
810	0.10069
822	0.164093
834	0.210701
846	0.179201
858	0.184344
870	0.336945
882	0.445751
894	0.355267
906	0.200255
918	0.085502
930	0.0508672
942	0.0351972
954	0.0249113
966	0.0355187
978	0.168674
990	0.209416
1002	0.0647694
1014	0.0581799
1026	0.0887967
1038	0.0588228
1050	0.0342329
1062	0.064689
1074	0.070073
1086	0.037608
1098	0.0202505
1110	0.0251524
1122	0.04476
1134	0.0576174
1146	0.054403
1158	0.0534387
1170	0.0486976
1182	0.0527959
1194	0.069832
1206	0.0712784
1218	0.0415456
1230	0.0408224
1242	0.0673408
1254	0.0903235
1266	0.0654122
1278	0.0380902
1290	0.0368044
1302	0.0555281
1314	0.0618764
1326	0.0543227
1338	0.042751
1350	0.0278846
1362	0.0391348
1374	0.103985
1386	0.287042
1398	0.239148
1410	0.0516708
1422	0.0280453
1434	0.0400188
1446	0.0965112
1458	0.110735
1470	0.110494
1482	0.15212
1494	0.183299
1506	0.128976
1518	0.0362419
1530	0.0218576
1542	0.0177593
1554	0.0163129
1566	0.0173575
1578	0.0281256
1590	0.0442778
1602	0.0779482
1614	0.073207
1626	0.0235452
1638	0.0151075
1650	0.020813
1662	0.0323043
1674	0.0266792
1686	0.0175986
1698	0.0202505
1710	0.0302953
1722	0.0444385
1734	0.063805
1746	0.0743321
1758	0.0546441
1770	0.0321436
1782	0.0237863
1794	0.0382509
1806	0.0461261
1818	0.0247506
1830	0.0158307
1842	0.0111699
1854	0.0160718
1866	0.0295721
1878	0.0376884
1890	0.0347151
1902	0.0181611
1914	0.0106877
1926	0.0178397
1938	0.0357598
1950	0.0462064
1962	0.0375277
1974	0.0184826
1986	0.011411
1998	0.0119735
2010	0.0116521
2022	0.009402
2034	0.00795554
2046	0.00715195
2058	0.00731267
2070	0.00908057
2082	0.00859841
2094	0.00699123
2106	0.00683051
2118	0.00699123
2130	0.00787518
2142	0.00755375
2154	0.00707159
2166	0.0066698
2178	0.00731267
2190	0.00948236
2202	0.0118931
2214	0.0159914
2226	0.0157504
2238	0.0181611
2250	0.0198487
2262	0.0127771
2274	0.00956272
2286	0.0098038
2298	0.0106074
2310	0.0144646
2322	0.016795
2334	0.011411
2346	0.00707159
2358	0.0102056
2370	8.0359e-05
2382	8.0359e-05
2394	0.00337508
2406	0.003134
2418	0.00273221
2430	0.00281256
2442	0.003134
2454	0.00466082
2466	0.00369651
2478	0.00417867
2490	0.003134
2502	0.00425903
2514	0.00361615
2526	0.00225005
2538	0.00120539
2550	0.000883949
2562	0.000723231
2574	0.00241077
2586	0.00441975
2598	0.00707159
2610	0.00747339
2622	0.00554477
2634	0.00554477
2646	0.00586621
2658	0.00281256
2670	0.00393759
2682	0.00642872
2694	0.00458046
2706	0.00602692
2718	0.00835734
2730	0.00964308
2742	0.00835734
2754	0.00795554
2766	0.00924129
2778	0.00819662
2790	0.00964308
2802	0.0128574
2814	0.0138217
2826	0.009402
2838	0.00875913
2850	0.0109288
2862	0.0154289
2874	0.0211344
2886	0.0265988
2898	0.0390545
2910	0.0806804
2922	0.143602
2934	0.127771
2946	0.100047
2958	0.0890378
2970	0.119655
2982	0.233523
2994	0.416902
3006	0.434501
3018	0.271533
3030	0.342088
3042	0.64014
3054	0.763169
3066	0.510923
3078	0.444064
3090	0.281899
3102	0.175504
3114	0.0988416
3126	0.0469297
3138	0.0149468
3150	0.00835734
3162	0.009402
3174	0.00948236
3186	0.00916093
3198	0.00691087
3210	0.00474118
3222	0.00192862
3234	0.00345544
3246	0.00401795
3258	0.00369651
3270	0.003134
3282	0.00241077
3294	0.00200897
3306	0.00281256
3318	0.00249113
3330	0.00184826
3342	0.0013661
3354	0.00120539
3366	0.000482154
3378	0.000482154
3390	0.00377687
3402	0.00474118
3414	0.0080359
3426	0.00779482
3438	0.00972344
3450	0.00972344
3462	0.0098038
3474	0.00956272
3486	0.00787518
3498	0.00875913
3510	0.00739303
3522	0.0109288
3534	0.0101252
3546	0.0111699
3558	0.0139021
3570	0.0138217
3582	0.0138217
3594	0.0155093
3606	0.017679
3618	0.0184022
3630	0.0166343
3642	0.0181611
3654	0.0202505
3666	0.022822
3678	0.0233845
3690	0.0229827
3702	0.0240273
3714	0.0241077
3726	0.0255542
3738	0.0248309
3750	0.025956
3762	0.0247506
3774	0.0229023
3786	0.0237059
3798	0.0261167
3810	0.0273221
3822	0.0321436
3834	0.0318222
3846	0.0272417
3858	0.0235452
3870	0.0233041
3882	0.0237059
3894	0.0229023
3906	0.0215362
3918	0.0214559
3930	0.0224202
3942	0.0246702
3954	0.0229023
3966	0.0247506
