Infrared Spectrum: 1-Butanol, 2-amino-
Formula: C 4 H 11 N O
CAS: 96-20-8
Origin: Sadtler Research Labs Under US-EPA Contract
1/CM	ABSORBANCE
450	0.134373
462	0.148708
474	0.150835
486	0.115045
498	0.0677878
510	0.0708397
522	0.0711171
534	0.0532685
546	0.0382867
558	0.0236749
570	0.0313507
582	0.0219178
594	0.0177562
606	0.0205306
618	0.0376394
630	0.0431882
642	0.0501242
654	0.0500317
666	0.0470723
678	0.0513264
690	0.0555805
702	0.064736
714	0.0759261
726	0.103855
738	0.156569
750	0.227778
762	0.335795
774	0.414218
786	0.44973
798	0.380925
810	0.310918
822	0.260701
834	0.236841
846	0.194855
858	0.156939
870	0.114028
882	0.0873011
894	0.0837869
906	0.111438
918	0.109959
930	0.0846192
942	0.0732442
954	0.0990461
966	0.121981
978	0.133634
990	0.156476
1002	0.185792
1014	0.243685
1026	0.36844
1038	0.54406
1050	0.675751
1062	0.691565
1074	0.50827
1086	0.261533
1098	0.133634
1110	0.103578
1122	0.108109
1134	0.124756
1146	0.120594
1158	0.11745
1170	0.118374
1182	0.109126
1194	0.0948845
1206	0.0813824
1218	0.0827696
1230	0.085359
1242	0.0766659
1254	0.073984
1266	0.0771283
1278	0.0736141
1290	0.0820298
1302	0.0895206
1314	0.096919
1326	0.114213
1338	0.133726
1350	0.142789
1362	0.154719
1374	0.17562
1386	0.196797
1398	0.213351
1410	0.197815
1422	0.14991
1434	0.100156
1446	0.11375
1458	0.178301
1470	0.189861
1482	0.135946
1494	0.0735216
1506	0.0504016
1518	0.0479971
1530	0.04624
1542	0.0509565
1554	0.0520662
1566	0.0501242
1578	0.0590947
1590	0.0750938
1602	0.110884
1614	0.153887
1626	0.161193
1638	0.123646
1650	0.0721344
1662	0.034495
1674	0.0194208
1686	0.0129472
1698	0.00804576
1710	0.00175712
1722	0.00129472
1734	0.00379168
1746	0.00110976
1758	0.00212704
1770	0.00268192
1782	0.00268192
1794	0.00397664
1806	0.0036992
1818	0.00573376
1830	0.00656608
1842	0.00656608
1854	0.0064736
1866	0.00702848
1878	0.00767584
1890	0.00675104
1902	0.00758336
1914	0.00721344
1926	0.00758336
1938	0.00795328
1950	0.00860064
1962	0.00850816
1974	0.00943296
1986	0.0102653
1998	0.0107277
2010	0.0122998
2022	0.0126698
2034	0.014057
2046	0.013872
2058	0.0149818
2070	0.0172013
2082	0.0172013
2094	0.0176637
2106	0.0172938
2118	0.0170163
2130	0.0174787
2142	0.0170163
2154	0.0169238
2166	0.0162765
2178	0.016369
2190	0.0162765
2202	0.0172938
2214	0.0168314
2226	0.0166464
2238	0.0172938
2250	0.0167389
2262	0.0172013
2274	0.0171088
2286	0.0179411
2298	0.0188659
2310	0.0203456
2322	0.0217328
2334	0.0217328
2346	0.0233974
2358	0.0264493
2370	0.0230275
2382	0.0230275
2394	0.0213629
2406	0.0216403
2418	0.0224726
2430	0.0224726
2442	0.0230275
2454	0.0223802
2466	0.0232125
2478	0.0222877
2490	0.0230275
2502	0.0239523
2514	0.0238598
2526	0.0253395
2538	0.0258944
2550	0.0270042
2562	0.0288538
2574	0.0303334
2586	0.0312582
2598	0.032368
2610	0.0333853
2622	0.034865
2634	0.0375469
2646	0.039489
2658	0.0419859
2670	0.0442054
2682	0.0466099
2694	0.048552
2706	0.0523437
2718	0.057615
2730	0.0636262
2742	0.0704698
2754	0.0774982
2766	0.0827696
2778	0.0921101
2790	0.104595
2802	0.123461
2814	0.144916
2826	0.184683
2838	0.26588
2850	0.385364
2862	0.51798
2874	0.605559
2886	0.635523
2898	0.598161
2910	0.597976
2922	0.76444
2934	0.897333
2946	0.849151
2958	0.801802
2970	0.9248
2982	0.705807
2994	0.314987
3006	0.11597
3018	0.0680653
3030	0.0548406
3042	0.0494768
3054	0.0482746
3066	0.0466099
3078	0.0427258
3090	0.0375469
3102	0.0350499
3114	0.032368
3126	0.0303334
3138	0.0288538
3150	0.0289462
3162	0.0297786
3174	0.0287613
3186	0.027744
3198	0.0240448
3210	0.0236749
3222	0.0216403
3234	0.0200682
3246	0.0191434
3258	0.018311
3270	0.0198832
3282	0.0179411
3294	0.0171088
3306	0.0173862
3318	0.0192358
3330	0.0233974
3342	0.025432
3354	0.022935
3366	0.0188659
3378	0.0177562
3390	0.0197907
3402	0.0278365
3414	0.034865
3426	0.0336627
3438	0.025617
3450	0.0226576
3462	0.0194208
3474	0.0180336
3486	0.0176637
3498	0.0171088
3510	0.0196982
3522	0.0258944
3534	0.0504941
3546	0.103948
3558	0.130952
3570	0.123923
3582	0.0858214
3594	0.0587248
3606	0.0400438
3618	0.0331078
3630	0.03468
3642	0.0434656
3654	0.0660307
3666	0.0873011
3678	0.0964566
3690	0.073984
3702	0.0404138
3714	0.0228426
3726	0.0164614
3738	0.0129472
3750	0.0114675
3762	0.00841568
3774	0.00619616
3786	0.00610368
3798	0.00610368
3810	0.00527136
3822	0.00712096
3834	0.00591872
3846	0.00628864
3858	0.0050864
3870	0.00536384
3882	0.00480896
3894	0.0036992
3906	0.00471648
3918	0.00305184
3930	0.00397664
3942	0.00499392
3954	0.0027744
3966	0.0027744
