Infrared Spectrum: Butyrolactone
Formula: C 4 H 6 O 2
CAS: 96-48-0
Origin: Sadtler Research Labs Under US-EPA Contract
1/CM	ABSORBANCE
450	0.0181402
462	0.00861333
474	0.0117454
486	0.0216638
498	0.0153996
510	0.0150081
522	0.0189232
534	0.0151386
546	0.0152691
558	0.0193147
570	0.00835232
582	0.0109624
594	0.00926585
606	0.0127895
618	0.0228384
630	0.0313212
642	0.0174877
654	0.0228384
666	0.0197063
678	0.0199673
690	0.0198368
702	0.0138335
714	0.0127895
726	0.0104404
738	0.00809131
750	0.00952687
762	0.012398
774	0.0151386
786	0.0146166
798	0.0264925
810	0.0310602
822	0.0310602
834	0.039282
846	0.0686456
858	0.0926585
870	0.0900485
882	0.0681236
894	0.0430666
906	0.0357584
918	0.0401955
930	0.037977
942	0.0341923
954	0.0190537
966	0.0224469
978	0.052202
990	0.0887434
1002	0.092006
1014	0.077781
1026	0.122675
1038	0.285936
1050	0.336572
1062	0.301075
1074	0.0720388
1086	0.0478953
1098	0.0473733
1110	0.0619899
1122	0.150342
1134	0.406523
1146	0.672753
1158	0.684238
1170	0.441237
1182	0.146296
1194	0.0781725
1206	0.0601628
1218	0.0506359
1230	0.0503749
1242	0.0469818
1254	0.0420226
1266	0.0369329
1278	0.0368024
1290	0.0324957
1302	0.0317127
1314	0.0245349
1326	0.0217943
1338	0.0249265
1350	0.0394125
1362	0.0811741
1374	0.0762149
1386	0.0794775
1398	0.0356279
1410	0.025318
1422	0.0353669
1434	0.0368024
1446	0.0426751
1458	0.0475038
1470	0.0356279
1482	0.0304077
1494	0.0210113
1506	0.0189232
1518	0.0161826
1530	0.0153996
1542	0.0174877
1554	0.01292
1566	0.0112234
1578	0.0125285
1590	0.012137
1602	0.0130505
1614	0.0135725
1626	0.0168351
1638	0.0185317
1650	0.0195757
1662	0.014225
1674	0.0153996
1686	0.0164436
1698	0.0185317
1710	0.0181402
1722	0.0207503
1734	0.0237519
1746	0.026362
1758	0.0463293
1770	0.0869163
1782	0.177748
1794	0.452852
1806	0.977874
1818	1.23079
1830	1.03765
1842	0.376637
1854	0.104273
1866	0.0490699
1878	0.0327568
1890	0.0242739
1902	0.0176182
1914	0.0170962
1926	0.0160521
1938	0.0155301
1950	0.0153996
1962	0.014225
1974	0.0138335
1986	0.0155301
1998	0.0176182
2010	0.0185317
2022	0.0176182
2034	0.013181
2046	0.0110929
2058	0.0112234
2070	0.0104404
2082	0.00991838
2094	0.00913535
2106	0.00652525
2118	0.00456768
2130	0.00469818
2142	0.00482869
2154	0.0052202
2166	0.00495919
2178	0.0052202
2190	0.0052202
2202	0.00587272
2214	0.00665576
2226	0.00730828
2238	0.00743878
2250	0.00717777
2262	0.00743878
2274	0.00965737
2286	0.0135725
2298	0.0157911
2310	0.0133115
2322	0.00717777
2334	0.00287111
2346	0.00104404
2358	0.00587272
2370	0.00326262
2382	0.00339313
2394	0.00404565
2406	0.00391515
2418	0.00404565
2430	0.00443717
2442	0.00378465
2454	0.00365414
2466	0.00352363
2478	0.00378465
2490	0.00352363
2502	0.00482869
2514	0.00574222
2526	0.00495919
2538	0.00365414
2550	0.00287111
2562	0.00247959
2574	0.00247959
2586	0.00274061
2598	0.00391515
2610	0.00287111
2622	0.00182707
2634	0.00208808
2646	0.00195758
2658	0.00143556
2670	0.00156606
2682	0.00247959
2694	0.00417616
2706	0.00482869
2718	0.00587272
2730	0.00613373
2742	0.00704727
2754	0.00482869
2766	0.00365414
2778	0.00352363
2790	0.00313212
2802	0.00469818
2814	0.00495919
2826	0.0053507
2838	0.00835232
2850	0.0112234
2862	0.013964
2874	0.0221859
2886	0.0456768
2898	0.102707
2910	0.143164
2922	0.119021
2934	0.0781725
2946	0.0670796
2958	0.0816961
2970	0.111321
2982	0.157389
2994	0.205545
3006	0.149559
3018	0.0826097
3030	0.0313212
3042	0.0101794
3054	0.00704727
3066	0.0053507
3078	0.00587272
3090	0.00626424
3102	0.00443717
3114	0.00495919
3126	0.00391515
3138	0.00469818
3150	0.00365414
3162	0.00469818
3174	0.00156606
3186	0.000913535
3198	0.000913535
3210	0.00169656
3222	0.00182707
3234	0.000913535
3246	0.00156606
3258	0.00117454
3270	0.00143556
3282	0
3294	0.00182707
3306	0.00208808
3318	0.00221858
3330	0.00300162
3342	0.00182707
3354	0.00313212
3366	0.00391515
3378	0.0026101
3390	0.00313212
3402	0.00326262
3414	0.00326262
3426	0.00404565
3438	0.00234909
3450	0.00287111
3462	0.00352363
3474	0.00352363
3486	0.00417616
3498	0.00378465
3510	0.00391515
3522	0.00456768
3534	0.00365414
3546	0.00495919
3558	0.00613373
3570	0.00743878
3582	0.00965737
3594	0.0143555
3606	0.0197063
3618	0.0184012
3630	0.0169656
3642	0.0120065
3654	0.00822182
3666	0.0053507
3678	0.00691677
3690	0.00626424
3702	0.00652525
3714	0.00495919
3726	0.00756929
3738	0.00613373
3750	0.00822182
3762	0.00704727
3774	0.0078303
3786	0.00561171
3798	0.00848282
3810	0.00822182
3822	0.00587272
3834	0.00848282
3846	0.00756929
3858	0.00652525
3870	0.00809131
3882	0.00978787
3894	0.00861333
3906	0.00665576
3918	0.00809131
3930	0.0079608
3942	0.0104404
3954	0.00756929
3966	0.00665576
