Infrared Spectrum: Thiophene, 2-chloro-
Formula: C 4 H 3 Cl S
CAS: 96-43-5
Origin: Sadtler Research Labs Under US-EPA Contract
1/CM	ABSORBANCE
450	0.0264966
462	0.0308087
474	0.0144682
486	0.000737594
498	0.0052199
510	0.00130497
522	0.00419861
534	0.00124824
546	0.00641139
558	0.000113476
570	0.00709225
582	0.00334754
594	0.00368797
606	0.00453904
618	0.00419861
630	0.0141278
642	0.0313194
654	0.0688232
666	0.206129
678	0.335662
690	0.318073
702	0.231321
714	0.0333619
726	0.00754615
738	0.00385818
750	0.00754615
762	0.00834049
774	0.00800006
786	0.0100994
798	0.0391492
810	0.0608231
822	0.0742133
834	0.12471
846	0.0848233
858	0.0848233
870	0.0132767
882	0.00482273
894	0.00607097
906	0.00533337
918	0.00748942
930	0.00641139
942	0.00158866
954	0.00300711
966	0.00527663
978	0.0128795
990	0.0803977
1002	0.230356
1014	0.248115
1026	0.0478301
1038	0.0540146
1050	0.139349
1062	0.146044
1074	0.0213335
1086	0.0234895
1098	0.0232058
1110	0.00868091
1122	0.00147519
1134	0.00136171
1146	0.000680856
1158	0.00209931
1170	0.00130497
1182	0.00124824
1194	0.000964546
1206	0.00771637
1218	0.0603125
1230	0.0764828
1242	0.0333619
1254	0.00697877
1266	0.00312059
1278	0.00499294
1290	0.00493621
1302	0.00215604
1314	0.00147519
1326	0.00300711
1338	0.0141845
1350	0.0310357
1362	0.055433
1374	0.0400003
1386	0.0175888
1398	0.068426
1410	0.228314
1422	0.221505
1434	0.0520855
1446	0.0207661
1458	0.0142412
1470	0.00249647
1482	0.00788658
1494	0.0237732
1506	0.0476599
1518	0.0731353
1530	0.0661565
1542	0.0089646
1554	0.00788658
1566	0.0161703
1578	0.0168512
1590	0.00885113
1602	0.0040284
1614	0.00635466
1626	0.0156029
1638	0.0162838
1650	0.00697877
1662	0.00323407
1674	0.00317733
1686	0.00777311
1698	0.0130497
1710	0.0104398
1722	0.00561706
1734	0.00544685
1746	0.00300711
1758	0.00624118
1770	0.0142412
1782	0.0157732
1794	0.0110072
1806	0.00295038
1818	0.00147519
1830	0.00198583
1842	0.00215604
1854	0.00249647
1866	0.00187235
1878	0.00175888
1890	0.00221278
1902	0.00198583
1914	0.00187235
1926	0.00181562
1938	0.00192909
1950	0.00192909
1962	0.00187235
1974	0.00130497
1986	0.00136171
1998	0.00187235
2010	0.00289364
2022	0.00187235
2034	0.00187235
2046	0.00141845
2058	0.00243973
2070	0.00232626
2082	0.00243973
2094	0.00266669
2106	0.00266669
2118	0.00221278
2130	0.00187235
2142	0.00136171
2154	0.00209931
2166	0.0032908
2178	0.00351776
2190	0.00397166
2202	0.00272342
2214	0.00187235
2226	0.00141845
2238	0.00226952
2250	0.00289364
2262	0.00414187
2274	0.00368797
2286	0.0028369
2298	0.00130497
2310	0.00226952
2322	0.0016454
2334	0.00278016
2346	0.00272342
2358	0.00317733
2370	0.00221278
2382	0.00113476
2394	0.00124824
2406	0.00175888
2418	0.00187235
2430	0.00198583
2442	0.00215604
2454	0.00181562
2466	0.00130497
2478	0.00124824
2490	0.00158866
2502	0.00124824
2514	0.0016454
2526	0.0016454
2538	0.00181562
2550	0.00056738
2562	0.0011915
2574	0.000624118
2586	0.00153193
2598	0.00175888
2610	0.00187235
2622	0.0011915
2634	0.00113476
2646	0.00181562
2658	0.00085107
2670	0.000510642
2682	0.000964546
2694	0.0011915
2706	0.0011915
2718	0.00153193
2730	0.00107802
2742	0.00181562
2754	0.00141845
2766	0.00221278
2778	0.00107802
2790	0.00209931
2802	0.00141845
2814	0.00346102
2826	0.00317733
2838	0.00260995
2850	0.000453904
2862	0.00158866
2874	0.00107802
2886	0.00147519
2898	0.000964546
2910	0.00141845
2922	0.0016454
2934	0.0011915
2946	0.00136171
2958	0.00136171
2970	0.00136171
2982	0.00153193
2994	0.00175888
3006	0.000680856
3018	0.00266669
3030	0.00255321
3042	0.00340428
3054	0.00130497
3066	0.00351776
3078	0.0165675
3090	0.0297307
3102	0.0268938
3114	0.0097022
3126	0.00499294
3138	0.00436883
3150	0.00158866
3162	0.00124824
3174	0.00124824
3186	0.00141845
3198	0.00147519
3210	0.00175888
3222	0.0011915
3234	0.00141845
3246	0.00136171
3258	0.00107802
3270	0.00209931
3282	0.000907808
3294	0.00289364
3306	0.00136171
3318	0.00215604
3330	0.00147519
3342	0.00215604
3354	0.00136171
3366	0.00215604
3378	0.00141845
3390	0.00295038
3402	0.00107802
3414	0.00198583
3426	0.00181562
3438	0.00249647
3450	0.00266669
3462	0.00260995
3474	0.00221278
3486	0.00249647
3498	0.00249647
3510	0.00243973
3522	0.00300711
3534	0.00192909
3546	0.00346102
3558	0.00215604
3570	0.00300711
3582	0.00175888
3594	0.00226952
3606	0.00181562
3618	0.00266669
3630	0.00317733
3642	0.00232626
3654	0.0016454
3666	0.00153193
3678	0.00278016
3690	0.00215604
3702	0.000113476
3714	0.000964546
3726	0.00085107
3738	0.00192909
3750	0.00204257
3762	0.000510642
3774	0.000113476
3786	0.000113476
3798	0.000113476
3810	0.000113476
3822	0.00113476
3834	0.000907808
3846	0.00085107
3858	0.000113476
3870	0.000113476
3882	0.000113476
3894	0.000113476
3906	0.000113476
3918	0.000113476
3930	0.000113476
3942	0.000113476
3954	0.000113476
3966	0.000113476
