Infrared Spectrum: Phenol, 2,4-bis(1,1-dimethylethyl)-
Formula: C 14 H 22 O
CAS: 96-76-4
Origin: Sadtler Research Labs Under US-EPA Contract
1/CM	ABSORBANCE
450	0.000113492
462	0.0309833
474	0.00828492
486	0.0215635
498	0.0729754
510	0.0264436
522	0.0202016
534	0.0101008
546	0.0106682
558	0.000794444
570	0.0256492
582	0.0131651
594	0.0124841
606	0.00964682
618	0.00556111
630	0.00771746
642	0.0298484
654	0.0186127
666	0.0123706
678	0.0135055
690	0.00544762
702	0.00385873
714	0.0349555
726	0.0266706
738	0.00817142
750	0.00488016
762	0.00533412
774	0.00329127
786	0.00930634
798	0.077742
810	0.183971
822	0.0770611
834	0.0309833
846	0.00805793
858	0.00533412
870	0.00953333
882	0.0230389
894	0.0324587
906	0.0238333
918	0.0158889
930	0.0164563
942	0.0098738
954	0.00590158
966	0.0043127
978	0.00488016
990	0.00601508
1002	0.00669603
1014	0.0101008
1026	0.00749047
1038	0.0099873
1050	0.0141865
1062	0.0200881
1074	0.0835301
1086	0.145724
1098	0.0375659
1110	0.0338206
1122	0.0591293
1134	0.0649174
1146	0.154122
1158	0.184311
1170	0.213932
1182	0.27624
1194	0.161272
1206	0.164677
1218	0.114059
1230	0.146064
1242	0.345016
1254	0.26909
1266	0.114059
1278	0.155598
1290	0.0903396
1302	0.0413111
1314	0.0451698
1326	0.134261
1338	0.0988515
1350	0.056519
1362	0.154236
1374	0.188056
1386	0.109974
1398	0.19044
1410	0.143
1422	0.0524333
1434	0.0343881
1446	0.0595833
1458	0.113379
1470	0.151171
1482	0.195547
1494	0.27624
1506	0.291447
1518	0.0770611
1530	0.0409706
1542	0.0268976
1554	0.0133921
1566	0.013846
1578	0.0141865
1590	0.0181587
1602	0.0299619
1614	0.0267841
1626	0.0116897
1638	0.0103278
1650	0.00953333
1662	0.00715
1674	0.00828492
1686	0.00771746
1698	0.00737698
1710	0.00658254
1722	0.00794444
1734	0.00919285
1746	0.0070365
1758	0.00964682
1770	0.00907936
1782	0.00737698
1794	0.00669603
1806	0.00692301
1818	0.00692301
1830	0.00737698
1842	0.00794444
1854	0.0103278
1866	0.00692301
1878	0.00624206
1890	0.00624206
1902	0.00499365
1914	0.00442619
1926	0.0041992
1938	0.00340476
1950	0.00374524
1962	0.00340476
1974	0.00408571
1986	0.00306428
1998	0.00306428
2010	0.00261032
2022	0.0028373
2034	0.00261032
2046	0.00385873
2058	0.00442619
2070	0.0028373
2082	0.00226984
2094	0.00226984
2106	0.00215635
2118	0.00170238
2130	0.00158889
2142	0.00192936
2154	0.0013619
2166	0.0014754
2178	0.000453968
2190	0.00192936
2202	0.00238333
2214	0.00249682
2226	0.00170238
2238	0.00170238
2250	0.00158889
2262	0.00238333
2274	0.00249682
2286	0.00385873
2298	0.00453968
2310	0.00612857
2322	0.00669603
2334	0.00510714
2346	0.00453968
2358	0.00601508
2370	0.00306428
2382	0.00488016
2394	0.00522063
2406	0.00442619
2418	0.00510714
2430	0.0043127
2442	0.00340476
2454	0.00238333
2466	0.00272381
2478	0.00295079
2490	0.0043127
2502	0.00385873
2514	0.00442619
2526	0.00476666
2538	0.0041992
2550	0.00465317
2562	0.0041992
2574	0.00329127
2586	0.0028373
2598	0.00329127
2610	0.00317778
2622	0.00226984
2634	0.00295079
2646	0.00385873
2658	0.00522063
2670	0.0043127
2682	0.00385873
2694	0.00261032
2706	0.00385873
2718	0.00783095
2730	0.00817142
2742	0.0070365
2754	0.00760396
2766	0.00805793
2778	0.0070365
2790	0.00976031
2802	0.00919285
2814	0.014754
2826	0.0199746
2838	0.0261032
2850	0.042446
2862	0.0997595
2874	0.224147
2886	0.262394
2898	0.233113
2910	0.297236
2922	0.331283
2934	0.307109
2946	0.385646
2958	0.804999
2970	1.12925
2982	0.451244
2994	0.155598
3006	0.118826
3018	0.0809198
3030	0.0603777
3042	0.0443754
3054	0.0447158
3066	0.0506174
3078	0.0435809
3090	0.0295079
3102	0.02145
3114	0.0208825
3126	0.0230389
3138	0.0191801
3150	0.0160024
3162	0.013619
3174	0.0141865
3186	0.0143
3198	0.0135055
3210	0.0122571
3222	0.0108952
3234	0.0099873
3246	0.00828492
3258	0.00794444
3270	0.00646904
3282	0.00715
3294	0.00658254
3306	0.0056746
3318	0.00533412
3330	0.00442619
3342	0.00556111
3354	0.00522063
3366	0.00488016
3378	0.00510714
3390	0.00453968
3402	0.00556111
3414	0.00658254
3426	0.00578809
3438	0.00465317
3450	0.0041992
3462	0.00556111
3474	0.00181587
3486	0.0041992
3498	0.00261032
3510	0.00317778
3522	0.00465317
3534	0.00499365
3546	0.0104413
3558	0.00692301
3570	0.00533412
3582	0.00760396
3594	0.00624206
3606	0.00817142
3618	0.0098738
3630	0.0309833
3642	0.192142
3654	0.130516
3666	0.0612857
3678	0.0635555
3690	0.0340476
3702	0.0169103
3714	0.00771746
3726	0.00760396
3738	0.00578809
3750	0.00510714
3762	0.00374524
3774	0.00658254
3786	0.00556111
3798	0.00612857
3810	0.00919285
3822	0.00817142
3834	0.00612857
3846	0.00204286
3858	0.000113492
3870	0.000794444
3882	0.000113492
3894	0.000907936
3906	0.000226984
3918	0.000794444
3930	0.00499365
3942	0.00329127
3954	0.000226984
3966	0.000113492
