Infrared Spectrum: Benzoic acid, 4-chloro-3-nitro-
Formula: C 7 H 4 Cl N O 4
CAS: 96-99-1
Origin: Sadtler Research Labs Under US-EPA Contract
1/CM	ABSORBANCE
450	0
462	0.0521252
474	0.063757
486	0.0452915
498	0.0519071
510	0.0679736
522	0.100397
534	0.0880385
546	0.0702272
558	0.0899287
570	0.063757
582	0.0530703
594	0.0582319
606	0.0638297
618	0.0595405
630	0.0390394
642	0.038894
654	0.0380943
666	0.0620122
678	0.157902
690	0.0758978
702	0.0384578
714	0.0418746
726	0.0222459
738	0.0518344
750	0.104687
762	0.158847
774	0.10236
786	0.105486
798	0.111884
810	0.0479086
822	0.0402025
834	0.0454369
846	0.0564871
858	0.0238453
870	0.0259535
882	0.0207919
894	0.0409295
906	0.0702999
918	0.0534338
930	0.0282072
942	0.025372
954	0.0213008
966	0.0241361
978	0.0221732
990	0.0223186
1002	0.0282072
1014	0.0359133
1026	0.0410022
1038	0.0745892
1050	0.169025
1062	0.0988706
1074	0.106359
1086	0.26397
1098	0.296394
1110	0.157321
1122	0.0959627
1134	0.141109
1146	0.132676
1158	0.0850578
1170	0.12417
1182	0.265133
1194	0.217879
1206	0.126496
1218	0.108903
1230	0.106795
1242	0.101415
1254	0.0743711
1266	0.0732806
1278	0.078006
1290	0.0889836
1302	0.115083
1314	0.139655
1326	0.141836
1338	0.190326
1350	0.3515
1362	0.315877
1374	0.166481
1386	0.0983617
1398	0.0833131
1410	0.0674647
1422	0.0490718
1434	0.0383851
1446	0.0318422
1458	0.0316968
1470	0.0484902
1482	0.064484
1494	0.0511074
1506	0.0596132
1518	0.0875296
1530	0.167498
1542	0.265133
1554	0.337832
1566	0.283308
1578	0.154413
1590	0.146634
1602	0.180948
1614	0.165099
1626	0.070518
1638	0.0435467
1650	0.0375854
1662	0.0372946
1674	0.0426016
1686	0.055542
1698	0.0734987
1710	0.0930547
1722	0.119953
1734	0.116246
1746	0.121335
1758	0.263679
1770	0.72699
1782	0.17724
1794	0.0474724
1806	0.0489991
1818	0.0624484
1830	0.0408568
1842	0.0295158
1854	0.0275529
1866	0.0269713
1878	0.0276983
1890	0.028498
1902	0.0287888
1914	0.0289342
1926	0.0296612
1938	0.0303155
1950	0.0282799
1962	0.0257354
1974	0.0265351
1986	0.0258081
1998	0.0249358
2010	0.0242815
2022	0.0242815
2034	0.0242088
2046	0.0238453
2058	0.0245723
2070	0.0248631
2082	0.0248631
2094	0.0247177
2106	0.0248631
2118	0.0244996
2130	0.0240634
2142	0.0240634
2154	0.0244269
2166	0.0244269
2178	0.0243542
2190	0.0241361
2202	0.0236272
2214	0.0222459
2226	0.0222459
2238	0.0222459
2250	0.0223186
2262	0.0218824
2274	0.0220278
2286	0.0228275
2298	0.0250085
2310	0.025372
2322	0.0237726
2334	0.0229729
2346	0.0241361
2358	0.0247904
2370	0.023918
2382	0.0260262
2394	0.0245723
2406	0.025372
2418	0.0257354
2430	0.0260262
2442	0.0272621
2454	0.0273348
2466	0.0276256
2478	0.0272621
2490	0.0271167
2502	0.0268986
2514	0.0266078
2526	0.0266805
2538	0.0266805
2550	0.0269713
2562	0.0281345
2574	0.028498
2586	0.0279891
2598	0.0280618
2610	0.0289342
2622	0.0285707
2634	0.0287161
2646	0.0283526
2658	0.0289342
2670	0.0290069
2682	0.0287161
2694	0.0276983
2706	0.0271894
2718	0.0262443
2730	0.0264624
2742	0.0261716
2754	0.0258808
2766	0.0258081
2778	0.02559
2790	0.0257354
2802	0.0258081
2814	0.0252993
2826	0.02559
2838	0.0258808
2850	0.0271894
2862	0.0283526
2874	0.0294431
2886	0.030679
2898	0.0314787
2910	0.0311879
2922	0.0283526
2934	0.0274802
2946	0.0274802
2958	0.0271894
2970	0.0275529
2982	0.0269713
2994	0.026317
3006	0.0258808
3018	0.0265351
3030	0.0275529
3042	0.0285707
3054	0.0293704
3066	0.0311152
3078	0.0378762
3090	0.0419473
3102	0.036713
3114	0.0324238
3126	0.0292977
3138	0.0290796
3150	0.0279164
3162	0.0279891
3174	0.0274802
3186	0.0274075
3198	0.0272621
3210	0.0276983
3222	0.0274075
3234	0.0286434
3246	0.0280618
3258	0.027771
3270	0.0272621
3282	0.0273348
3294	0.0276256
3306	0.0276983
3318	0.0271894
3330	0.0278437
3342	0.0272621
3354	0.0289342
3366	0.0282072
3378	0.0289342
3390	0.029225
3402	0.0283526
3414	0.0289342
3426	0.0278437
3438	0.0282799
3450	0.0267532
3462	0.0275529
3474	0.029225
3486	0.0279164
3498	0.0286434
3510	0.0290796
3522	0.030679
3534	0.0269713
3546	0.025372
3558	0.0282072
3570	0.0620849
3582	0.291014
3594	0.105268
3606	0.025372
3618	0.0218824
3630	0.0249358
3642	0.0232637
3654	0.0266078
3666	0.0238453
3678	0.0235545
3690	0.024645
3702	0.0220278
3714	0.023191
3726	0.0221732
3738	0.0226094
3750	0.0239907
3762	0.0219551
3774	0.022464
3786	0.0222459
3798	0.02559
3810	0.0229002
3822	0.0243542
3834	0.0240634
3846	0.0234818
3858	0.0237726
3870	0.0240634
3882	0.0236272
3894	0.0237726
3906	0.0255173
3918	0.0256627
3930	0.0225367
3942	0.0229729
3954	0.0227548
3966	0.0261716
