Infrared Spectrum: Benzenesulfonyl chloride, 4-chloro-3-nitro-
Formula: C 6 H 3 Cl 2 N O 4 S
CAS: 97-08-5
Origin: Sadtler Research Labs Under US-EPA Contract
1/CM	ABSORBANCE
450	0.00834026
462	0.0177654
474	0.0398705
486	0.131885
498	0.189114
510	0.0686207
522	0.0522114
534	0.0678748
546	0.126189
558	0.275229
570	0.260786
582	0.24397
594	0.184706
606	0.290282
618	0.278348
630	0.225594
642	0.193318
654	0.105915
666	0.111339
678	0.0230544
690	0.0107135
702	0.0149175
714	0.00922175
726	0.00732316
738	0.0103067
750	0.0204099
762	0.0465834
774	0.188775
786	0.0414301
798	0.00908614
810	0.0120018
822	0.0627215
834	0.0478039
846	0.0117984
858	0.0163415
870	0.03865
882	0.16572
894	0.0693666
906	0.0284111
918	0.00569579
930	0.00379719
942	0.0019664
954	0.00162737
966	0.00176298
978	0.000881491
990	0.00128833
1002	0.00264447
1014	0.00732316
1026	0.0149175
1038	0.0402774
1050	0.237664
1062	0.125036
1074	0.0288858
1086	0.040413
1098	0.0623146
1110	0.032683
1122	0.0292926
1134	0.0492279
1146	0.0637386
1158	0.0631961
1170	0.0904545
1182	0.394569
1194	0.603754
1206	0.173789
1218	0.0781137
1230	0.0297673
1242	0.0185791
1254	0.0263091
1266	0.0138326
1278	0.0147819
1290	0.0199353
1302	0.0187825
1314	0.0318693
1326	0.0598058
1338	0.17284
1350	0.352257
1362	0.191284
1374	0.100761
1386	0.126663
1398	0.267363
1410	0.632639
1422	0.0879457
1434	0.0411588
1446	0.0338357
1458	0.079402
1470	0.0982523
1482	0.0222407
1494	0.0200031
1506	0.0351918
1518	0.0633995
1530	0.107067
1542	0.178061
1554	0.359513
1566	0.406842
1578	0.273601
1590	0.285807
1602	0.226611
1614	0.0568901
1626	0.0235968
1638	0.0171552
1650	0.0195962
1662	0.0101032
1674	0.00908614
1686	0.00922175
1698	0.00962859
1710	0.00379719
1722	0.00454307
1734	0.0086793
1746	0.00542456
1758	0.00494991
1770	0.00711973
1782	0.00983201
1794	0.0103067
1806	0.00617044
1818	0.00284789
1830	0.00400061
1842	0.00237324
1854	0.000881491
1866	0.00271228
1878	0.000881491
1890	0.00149175
1902	0.0018986
1914	0.00562798
1926	0.00773
1938	0.0018986
1950	0.0010171
1962	0.0010171
1974	0.00155956
1986	0.000949298
1998	0.000542456
2010	0.000203421
2022	0.000813684
2034	0.000745877
2046	0.00067807
2058	0.000610263
2070	0.000949298
2082	0.000610263
2094	0.000271228
2106	0.000406842
2118	0.000406842
2130	0.000339035
2142	6.7807e-05
2154	6.7807e-05
2166	0.000271228
2178	0.000474649
2190	0.000949298
2202	0.000474649
2214	6.7807e-05
2226	0.000203421
2238	0.000271228
2250	0.000474649
2262	0.000610263
2274	0.00210202
2286	0.00345816
2298	0.0048143
2310	0.00515333
2322	0.00427184
2334	0.00339035
2346	0.0048143
2358	0.0048143
2370	0.00318693
2382	0.00433965
2394	0.00149175
2406	0.00162737
2418	0.00135614
2430	0.00155956
2442	0.0018986
2454	0.00149175
2466	0.00162737
2478	0.00142395
2490	0.0010171
2502	0.00135614
2514	0.00162737
2526	0.00203421
2538	0.00278009
2550	0.00352596
2562	0.00447526
2574	0.00352596
2586	0.00406842
2598	0.00372938
2610	0.00230544
2622	0.0019664
2634	0.00230544
2646	0.00183079
2658	0.00257667
2670	0.00372938
2682	0.0048143
2694	0.00549237
2706	0.00549237
2718	0.00413623
2730	0.00413623
2742	0.00271228
2754	0.00298351
2766	0.0019664
2778	0.00318693
2790	0.00210202
2802	0.00352596
2814	0.0029157
2826	0.00339035
2838	0.00345816
2850	0.00372938
2862	0.00461088
2874	0.00576359
2886	0.00725535
2898	0.00989982
2910	0.0100354
2922	0.00732316
2934	0.00637386
2946	0.00569579
2958	0.00406842
2970	0.00413623
2982	0.00427184
2994	0.00278009
3006	0.00216982
3018	0.00393281
3030	0.00447526
3042	0.00393281
3054	0.00318693
3066	0.00569579
3078	0.0242749
3090	0.0311912
3102	0.0176298
3114	0.00542456
3126	0.00379719
3138	0.00345816
3150	0.00230544
3162	0.00169517
3174	0.000542456
3186	0.000610263
3198	0.00115272
3210	0.00108491
3222	0.00115272
3234	0.000881491
3246	0.000813684
3258	0.000881491
3270	0.000135614
3282	0.00067807
3294	0.000881491
3306	0.000406842
3318	0.0010171
3330	0.000949298
3342	0.00108491
3354	0.000745877
3366	0.00108491
3378	0.00122053
3390	0.000813684
3402	0.0010171
3414	0.000949298
3426	0.0010171
3438	0.00122053
3450	0.000949298
3462	0.000881491
3474	0.000881491
3486	0.000745877
3498	0.000610263
3510	0.000745877
3522	0.000406842
3534	0.000745877
3546	0.000610263
3558	0.000813684
3570	0.00210202
3582	0.00122053
3594	0.000610263
3606	0.000271228
3618	0.000610263
3630	0.00128833
3642	0.00067807
3654	0.00176298
3666	0.00142395
3678	0.00067807
3690	0.000542456
3702	0.00128833
3714	0.00128833
3726	0.0018986
3738	0.00128833
3750	0.00155956
3762	0.000745877
3774	0.00122053
3786	0.000745877
3798	0
3810	0.0010171
3822	0.000949298
3834	0.000271228
3846	0.00142395
3858	0.00115272
3870	0.000745877
3882	0.000135614
3894	0.0010171
3906	0.000542456
3918	0.000881491
3930	0.0010171
3942	0.000135614
3954	0.00128833
3966	0.00067807
