Infrared Spectrum: Benzene, 1-chloro-2,4-dinitro-
Formula: C 6 H 3 Cl N 2 O 4
CAS: 97-00-7
Origin: Sadtler Research Labs Under US-EPA Contract
1/CM	ABSORBANCE
450	0.0113411
462	0.0118397
474	0.0113411
486	0.00510975
498	0.00336496
510	0.0127121
522	0.0239286
534	0.0611923
546	0.0294122
558	0.019442
570	0.0167002
582	0.0124628
594	0.00361421
606	0.00585752
618	0.00174479
630	0.00286644
642	0.00685454
654	0.0282906
666	0.0619401
678	0.0285398
690	0.0213114
702	0.0332757
714	0.029163
726	0.0615662
738	0.155411
750	0.199779
762	0.0434952
774	0.0139583
786	0.00772694
798	0.00797619
810	0.0154539
822	0.0785156
834	0.243523
846	0.0752753
858	0.0125874
870	0.0118397
882	0.0169494
894	0.0395071
906	0.151548
918	0.17099
930	0.019442
942	0.00959636
954	0.00648066
966	0.00548363
978	0.00486049
990	0.00348958
1002	0.00573289
1014	0.00972098
1026	0.017074
1038	0.0841239
1050	0.210871
1062	0.0975837
1074	0.0377623
1086	0.0206882
1098	0.0334003
1110	0.0434952
1122	0.0168248
1134	0.0203144
1146	0.0406287
1158	0.0618155
1170	0.019442
1182	0.0122135
1194	0.0137091
1206	0.0130859
1218	0.010718
1230	0.0118397
1242	0.0661775
1254	0.0469848
1266	0.0168248
1278	0.0254241
1290	0.0347712
1302	0.0407534
1314	0.0745275
1326	0.202271
1338	0.614541
1350	1.04301
1362	0.476702
1374	0.1341
1386	0.0649312
1398	0.0560826
1410	0.0520945
1422	0.0481064
1434	0.042872
1446	0.0529669
1458	0.0969606
1470	0.142574
1482	0.0687947
1494	0.0757738
1506	0.110047
1518	0.144818
1530	0.248882
1542	0.651181
1554	1.24628
1566	0.744029
1578	0.326151
1590	0.417753
1602	0.543877
1614	0.2429
1626	0.0598214
1638	0.0442429
1650	0.0347712
1662	0.0226823
1674	0.0190681
1686	0.00997024
1698	0.0110919
1710	0.00909784
1722	0.00348958
1734	0.00498512
1746	0.00473586
1758	0.00211868
1770	0.00448661
1782	0.00548363
1794	0.0093471
1806	0.0100949
1818	0.00747768
1830	0.00299107
1842	0.00286644
1854	0.00174479
1866	0.00211868
1878	0.00324033
1890	0.0022433
1902	0.0039881
1914	0.00772694
1926	0.0093471
1938	0.00411272
1950	0.00124628
1962	0.000124628
1974	0.00137091
1986	0.000997024
1998	0.000373884
2010	0.00149554
2022	0.000997024
2034	0.000498512
2046	0.00186942
2058	0.00162016
2070	0.00236793
2082	0.00236793
2094	0.00124628
2106	0.00137091
2118	0.00186942
2130	0.00112165
2142	0.00199405
2154	0.00211868
2166	0.00162016
2178	0.00236793
2190	0.0022433
2202	0.00199405
2214	0.00299107
2226	0.00199405
2238	0.00149554
2250	0.00211868
2262	0.0022433
2274	0.0031157
2286	0.00274182
2298	0.00124628
2310	0.000124628
2322	0.00137091
2334	0.00062314
2346	0.0031157
2358	0.00236793
2370	0.00124628
2382	0.00448661
2394	0.00461124
2406	0.0031157
2418	0.00361421
2430	0.00373884
2442	0.00386347
2454	0.00486049
2466	0.00448661
2478	0.00436198
2490	0.00498512
2502	0.0039881
2514	0.00461124
2526	0.00473586
2538	0.0039881
2550	0.00423735
2562	0.00498512
2574	0.00510975
2586	0.00598214
2598	0.00548363
2610	0.00423735
2622	0.00461124
2634	0.00423735
2646	0.00411272
2658	0.005359
2670	0.00735305
2682	0.0110919
2694	0.0135845
2706	0.0119643
2718	0.00872396
2730	0.00660528
2742	0.00585752
2754	0.00660528
2766	0.005359
2778	0.00386347
2790	0.00423735
2802	0.00498512
2814	0.00510975
2826	0.0071038
2838	0.00897322
2850	0.0104688
2862	0.0132106
2874	0.0175725
2886	0.0229316
2898	0.0264211
2910	0.0221838
2922	0.0153292
2934	0.0138337
2946	0.0123382
2958	0.0100949
2970	0.00810082
2982	0.00635603
2994	0.00560826
3006	0.00548363
3018	0.00523438
3030	0.00635603
3042	0.00785156
3054	0.00747768
3066	0.00735305
3078	0.0135845
3090	0.0377623
3102	0.0584505
3114	0.0421243
3126	0.00984561
3138	0.00560826
3150	0.00473586
3162	0.00348958
3174	0.0031157
3186	0.00274182
3198	0.00361421
3210	0.00348958
3222	0.0022433
3234	0.00348958
3246	0.00324033
3258	0.00261719
3270	0.00324033
3282	0.00324033
3294	0.00274182
3306	0.00324033
3318	0.00336496
3330	0.00286644
3342	0.00336496
3354	0.00274182
3366	0.00348958
3378	0.00386347
3390	0.0031157
3402	0.00361421
3414	0.00286644
3426	0.00236793
3438	0.00436198
3450	0.00261719
3462	0.00236793
3474	0.0031157
3486	0.00274182
3498	0.00199405
3510	0.0031157
3522	0.00174479
3534	0.00236793
3546	0.00324033
3558	0.00124628
3570	0.00249256
3582	0.0031157
3594	0.00174479
3606	0.00261719
3618	0.00186942
3630	0.00174479
3642	0.0031157
3654	0.00436198
3666	0.00249256
3678	0.00336496
3690	0.0039881
3702	0.00261719
3714	0.00510975
3726	0.00199405
3738	0.00510975
3750	0.00510975
3762	0.0039881
3774	0.0039881
3786	0.00486049
3798	0.00174479
3810	0.00560826
3822	0.00373884
3834	0.00236793
3846	0.00423735
3858	0.00585752
3870	0.0039881
3882	0.00112165
3894	0.00448661
3906	0.00274182
3918	0.0062314
3930	0.00436198
3942	0.00348958
3954	0.00560826
3966	0.00348958
