Infrared Spectrum: Phenol, 2,4-dichloro-, benzenesulfonate
Formula: C 12 H 8 Cl 2 O 3 S
CAS: 97-16-5
Origin: Sadtler Research Labs Under US-EPA Contract
1/CM	ABSORBANCE
450	0.0156883
462	0.00852105
474	0.0148123
486	0.0210239
498	0.0265188
510	0.0294653
522	0.0343231
534	0.0474631
546	0.0664164
558	0.103129
570	0.177907
582	0.254676
594	0.335586
606	0.254357
618	0.0488169
630	0.0374289
642	0.0674517
654	0.0722299
666	0.0711946
678	0.245199
690	0.192082
702	0.0594881
714	0.101217
726	0.131798
738	0.184039
750	0.195586
762	0.111889
774	0.253163
786	0.786724
798	0.386633
810	0.134585
822	0.239306
834	0.105916
846	0.0422867
858	0.12471
870	0.386712
882	0.157042
894	0.0636292
906	0.0334471
918	0.0176792
930	0.0160865
942	0.0179181
954	0.0109898
966	0.00875996
978	0.0079636
990	0.0100341
1002	0.0175996
1014	0.013777
1026	0.026041
1038	0.0250057
1050	0.107031
1062	0.129408
1074	0.0575768
1086	0.194073
1098	0.3062
1110	0.0987486
1122	0.0371104
1134	0.0331286
1146	0.0575768
1158	0.0609215
1170	0.131081
1182	0.354301
1194	0.545188
1206	0.265188
1218	0.359477
1230	0.0844938
1242	0.0654608
1254	0.090148
1266	0.0382253
1278	0.0317748
1290	0.024289
1302	0.0176792
1314	0.0262002
1326	0.0265984
1338	0.0401365
1350	0.0446758
1362	0.100262
1374	0.177588
1386	0.307793
1398	0.231661
1410	0.346018
1422	0.0637884
1434	0.0500114
1446	0.132514
1458	0.153379
1470	0.506804
1482	0.272037
1494	0.07
1506	0.0375086
1518	0.0184756
1530	0.00828214
1542	0.00422071
1554	0.00660979
1566	0.0218203
1578	0.060603
1590	0.0247668
1602	0.0070876
1614	0.0039818
1626	0.000477816
1638	0.000557452
1650	0.00167236
1662	0.000637088
1674	0.00302617
1686	0.0028669
1698	0.00151308
1710	0.000875996
1722	0.00302617
1734	0.0070876
1746	0.00270762
1758	0.00445962
1770	0.00517634
1782	0.00191126
1794	0.00222981
1806	0.00772469
1818	0.00477816
1830	0.00318544
1842	0.00191126
1854	0.00230944
1866	0.00414107
1878	0.0079636
1890	0.012025
1902	0.0101934
1914	0.0079636
1926	0.00573379
1938	0.00469852
1950	0.00589306
1962	0.00836178
1974	0.00804324
1986	0.00565416
1998	0.00350398
2010	0.0031058
2022	0.00270762
2034	0.00270762
2046	0.0031058
2058	0.00318544
2070	0.00334471
2082	0.00318544
2094	0.00278726
2106	0.00238908
2118	0.0031058
2130	0.00262799
2142	0.00238908
2154	0.00222981
2166	0.00222981
2178	0.00270762
2190	0.00350398
2202	0.00358362
2214	0.00342435
2226	0.00342435
2238	0.00382253
2250	0.00445962
2262	0.00541525
2274	0.00653015
2286	0.00700797
2298	0.00645052
2310	0.00700797
2322	0.00868032
2334	0.00828214
2346	0.0079636
2358	0.00637088
2370	0.00461889
2382	0.00445962
2394	0.00469852
2406	0.00517634
2418	0.00501707
2430	0.00517634
2442	0.00493743
2454	0.00445962
2466	0.00437998
2478	0.00406144
2490	0.0039818
2502	0.00469852
2514	0.0048578
2526	0.00469852
2538	0.0048578
2550	0.00573379
2562	0.00653015
2574	0.00780433
2586	0.0079636
2598	0.00764506
2610	0.0070876
2622	0.00660979
2634	0.0068487
2646	0.0070876
2658	0.00732651
2670	0.00772469
2682	0.00748578
2694	0.00613197
2706	0.00629124
2718	0.00629124
2730	0.0059727
2742	0.00541525
2754	0.00477816
2766	0.00525598
2778	0.00501707
2790	0.00549488
2802	0.00557452
2814	0.00573379
2826	0.00589306
2838	0.00573379
2850	0.00453925
2862	0.0048578
2874	0.00549488
2886	0.00621161
2898	0.00541525
2910	0.00533561
2922	0.00159272
2934	0.00573379
2946	0.00868032
2958	0.00764506
2970	0.00875996
2982	0.00868032
2994	0.00931741
3006	0.011149
3018	0.0132992
3030	0.0147327
3042	0.0149716
3054	0.0177588
3066	0.0361547
3078	0.0594881
3090	0.0324915
3102	0.023413
3114	0.0127418
3126	0.00868032
3138	0.00764506
3150	0.00748578
3162	0.00772469
3174	0.00660979
3186	0.00573379
3198	0.0050967
3210	0.00445962
3222	0.00493743
3234	0.0050967
3246	0.00605234
3258	0.00605234
3270	0.00581343
3282	0.00653015
3294	0.00668942
3306	0.00692833
3318	0.00780433
3330	0.00716724
3342	0.00772469
3354	0.00676906
3366	0.00692833
3378	0.00740615
3390	0.00812287
3402	0.00700797
3414	0.00629124
3426	0.00517634
3438	0.00501707
3450	0.00557452
3462	0.00533561
3474	0.00541525
3486	0.00453925
3498	0.00350398
3510	0.00358362
3522	0.00406144
3534	0.00517634
3546	0.00493743
3558	0.00541525
3570	0.00629124
3582	0.00971559
3594	0.00740615
3606	0.00756542
3618	0.00844142
3630	0.0088396
3642	0.00899887
3654	0.00947668
3666	0.0099545
3678	0.0108305
3690	0.0116269
3702	0.0109101
3714	0.00971559
3726	0.00899887
3738	0.00828214
3750	0.00868032
3762	0.00788396
3774	0.00700797
3786	0.00549488
3798	0.00414107
3810	0.00390216
3822	0.00358362
3834	0.00414107
3846	0.00541525
3858	0.00270762
3870	0.00246872
3882	0.00318544
3894	0.00374289
3906	0.00589306
3918	0.00676906
3930	0.00692833
3942	0.00668942
3954	0.00955632
3966	0.0099545
