Infrared Spectrum: Ethyl chrysanthemate
Formula: C 12 H 20 O 2
CAS: 97-41-6
Origin: Sadtler Research Labs Under US-EPA Contract
1/CM	ABSORBANCE
450	0.0094765
462	0.0102346
474	0.00705052
486	0.00614077
498	0.00705052
510	0.0075812
522	0.00553428
534	0.00614077
546	0.00492778
558	0.00454872
570	0.00454872
582	0.00356316
594	0.00288086
606	0.0012888
618	0.00106137
630	0.00113718
642	0.000833932
654	0.0031841
666	0.00348735
678	0.00356316
690	0.00386641
702	0.00553428
714	0.00796026
726	0.0107653
738	0.00909744
750	0.00894582
762	0.0117509
774	0.0164512
786	0.0155415
798	0.0144043
810	0.021758
822	0.027823
834	0.0335847
846	0.0588301
858	0.0754329
870	0.031841
882	0.0171335
894	0.0131913
906	0.0160721
918	0.0234259
930	0.0228194
942	0.0247147
954	0.031841
966	0.0369963
978	0.0317652
990	0.0291118
1002	0.0353284
1014	0.0376028
1026	0.0648193
1038	0.104014
1050	0.10553
1062	0.123953
1074	0.149274
1086	0.149956
1098	0.14844
1110	0.158978
1122	0.213108
1134	0.334483
1146	0.480117
1158	0.66616
1170	0.663128
1182	0.411962
1194	0.352829
1206	0.219248
1218	0.165043
1230	0.21796
1242	0.14844
1254	0.12835
1266	0.144119
1278	0.146545
1290	0.124938
1302	0.0774041
1314	0.0852127
1326	0.109245
1338	0.0814979
1350	0.124028
1362	0.0974184
1374	0.163754
1386	0.207497
1398	0.115386
1410	0.125014
1422	0.169819
1434	0.135249
1446	0.112581
1458	0.131079
1470	0.11296
1482	0.0593608
1494	0.0298699
1506	0.0200902
1518	0.0157689
1530	0.0129639
1542	0.0130397
1554	0.0119025
1566	0.0110686
1578	0.0108411
1590	0.00955231
1602	0.00902163
1614	0.00932488
1626	0.0101588
1638	0.0112202
1650	0.0128122
1662	0.0163754
1674	0.0179674
1686	0.0191804
1698	0.0313104
1710	0.047989
1722	0.0961296
1734	0.438572
1746	0.609301
1758	0.133657
1770	0.0661081
1782	0.0382851
1794	0.0206967
1806	0.0181949
1818	0.0147075
1830	0.0081877
1842	0.00515522
1854	0.00341154
1866	0.00356316
1878	0.00363898
1890	0.00416966
1902	0.00462453
1914	0.00401804
1926	0.00333573
1938	0.00310829
1950	0.00280504
1962	0.00257761
1974	0.00242598
1986	0.00204692
1998	0.00212274
2010	0.00303248
2022	0.00409385
2034	0.00416966
2046	0.00348735
2058	0.00295667
2070	0.00303248
2082	0.00212274
2094	0.00181949
2106	0.00197111
2118	0.00219855
2130	0.00204692
2142	0.00181949
2154	0.00174368
2166	0.00151624
2178	0.00121299
2190	0.00106137
2202	0.000833932
2214	0.000833932
2226	0.000833932
2238	0.000985556
2250	0.00113718
2262	0.00113718
2274	0.00121299
2286	0.00159205
2298	0.0025018
2310	0.00356316
2322	0.00371479
2334	0.00394222
2346	0.00470034
2358	0.00394222
2370	0.00424547
2382	0.00363898
2394	0.00159205
2406	0.00151624
2418	0.00159205
2430	0.00106137
2442	0.00113718
2454	0.00121299
2466	0.000985556
2478	0.00075812
2490	0.000454872
2502	0.000833932
2514	0.000454872
2526	0.000227436
2538	0.000227436
2550	0.000454872
2562	0.000227436
2574	0.000682308
2586	0.000606496
2598	0.000606496
2610	0.000454872
2622	0.00037906
2634	0.000151624
2646	7.5812e-05
2658	0.00037906
2670	0.000606496
2682	0.00106137
2694	0.00151624
2706	0.00219855
2718	0.00386641
2730	0.00705052
2742	0.0178158
2754	0.0157689
2766	0.00970394
2778	0.00962812
2790	0.00902163
2802	0.0101588
2814	0.0134945
2826	0.0187256
2838	0.0249421
2850	0.0419998
2862	0.0899888
2874	0.155642
2886	0.182025
2898	0.169516
2910	0.183313
2922	0.2661
2934	0.302338
2946	0.281414
2958	0.324475
2970	0.248057
2982	0.305067
2994	0.230999
3006	0.132898
3018	0.0774799
3030	0.0589059
3042	0.0565558
3054	0.0400287
3066	0.0260793
3078	0.0185739
3090	0.0148592
3102	0.0128122
3114	0.0117509
3126	0.00970394
3138	0.00833932
3150	0.00727795
3162	0.00591334
3174	0.00530684
3186	0.00394222
3198	0.0031841
3210	0.00242598
3222	0.00151624
3234	0.00136462
3246	0.00113718
3258	0.000454872
3270	0.000909744
3282	0.00037906
3294	0.00075812
3306	0.000606496
3318	0.00106137
3330	0.000909744
3342	0.00121299
3354	0.00121299
3366	0.00075812
3378	0.00136462
3390	0.00144043
3402	0.00121299
3414	0.00144043
3426	0.00106137
3438	0.00136462
3450	0.00242598
3462	0.00477616
3474	0.00204692
3486	0.000530684
3498	0.00075812
3510	0.000530684
3522	0.000151624
3534	0.000303248
3546	0.000530684
3558	0.000606496
3570	0.00136462
3582	0.00075812
3594	0.000454872
3606	0.000606496
3618	0.000454872
3630	0.000682308
3642	0.00121299
3654	0.000833932
3666	0
3678	0.000454872
3690	0.000833932
3702	0.000151624
3714	0.000530684
3726	0.000833932
3738	0.000833932
3750	0.00075812
3762	0.00106137
3774	0.000909744
3786	0.000682308
3798	0.00113718
3810	0.0018953
3822	0.00212274
3834	0.00136462
3846	0.00121299
3858	0.00204692
3870	0.00159205
3882	0.000985556
3894	0.00037906
3906	0.00212274
3918	0.0012888
3930	0.00174368
3942	0.00075812
3954	0.00075812
3966	0.0018953
