Infrared Spectrum: Eugenol
Formula: C 10 H 12 O 2
CAS: 97-53-0
Origin: Sadtler Research Labs Under US-EPA Contract
1/CM	ABSORBANCE
450	0.0412647
462	0.0331568
474	0.0200391
486	0.0084375
498	0.00810791
510	0.00435059
522	0.0100195
534	0.0100195
546	0.0324317
558	0.0303223
570	0.0201709
582	0.0143701
594	0.0226099
606	0.0114038
618	0.012854
630	0.0154248
642	0.0249829
654	0.0163477
666	0.00718506
678	0.0047461
690	0.00494385
702	0.00540528
714	0.00883301
726	0.0187207
738	0.0480542
750	0.0457471
762	0.023335
774	0.0284766
786	0.0702027
798	0.0979541
810	0.0757398
822	0.0773877
834	0.0343433
846	0.0363208
858	0.0338159
870	0.0237964
882	0.0240601
894	0.0398804
906	0.0721143
918	0.105798
930	0.047461
942	0.0390235
954	0.0306519
966	0.0212915
978	0.029729
990	0.0645996
1002	0.0517456
1014	0.049834
1026	0.0989429
1038	0.141658
1050	0.0914283
1062	0.0290039
1074	0.0158862
1086	0.0193799
1098	0.0293994
1110	0.0647315
1122	0.118455
1134	0.110544
1146	0.161565
1158	0.130122
1170	0.0823975
1182	0.098086
1194	0.129331
1206	0.206257
1218	0.18345
1230	0.305266
1242	0.362879
1254	0.258596
1266	0.491221
1278	0.39676
1290	0.147459
1302	0.0783106
1314	0.0495044
1326	0.0382984
1338	0.0350025
1350	0.0608423
1362	0.112324
1374	0.100261
1386	0.039419
1398	0.0212915
1410	0.0300586
1422	0.0713233
1434	0.137439
1446	0.0910987
1458	0.0921534
1470	0.108237
1482	0.07396
1494	0.111401
1506	0.411328
1518	0.58667
1530	0.132627
1542	0.0379688
1554	0.0197095
1566	0.0152271
1578	0.0174683
1590	0.0338159
1602	0.0756079
1614	0.0789038
1626	0.0509546
1638	0.0499658
1650	0.0317066
1662	0.0101514
1674	0.00883301
1686	0.00744873
1698	0.00837159
1710	0.0102832
1722	0.00982178
1734	0.00520752
1746	0.00639405
1758	0.00395508
1770	0.00388916
1782	0.00342774
1794	0.00461426
1806	0.004021
1818	0.00566895
1830	0.0107446
1842	0.0109424
1854	0.00764649
1866	0.00817383
1878	0.00415283
1890	0.0032959
1902	0.00230713
1914	0.00224121
1926	0.00164795
1938	0.00138428
1950	0.00105469
1962	0.00177979
1974	0.00283447
1986	0.00290039
1998	0.00191162
2010	0.00243897
2022	0.00290039
2034	0.00349365
2046	0.00481201
2058	0.0051416
2070	0.00520752
2082	0.00408692
2094	0.00243897
2106	0.00112061
2118	0.00065918
2130	0.00065918
2142	0.00112061
2154	0.000791016
2166	0.0018457
2178	0.00164795
2190	0.00177979
2202	0.000922852
2214	0.00065918
2226	0.000395508
2238	0.000461426
2250	0.000461426
2262	0.00112061
2274	0.000527344
2286	0.00151611
2298	0.00210938
2310	0.00441651
2322	0.00375733
2334	0.00481201
2346	0.00428467
2358	0.00448242
2370	0.0025708
2382	0.00316406
2394	0.00230713
2406	0.00243897
2418	0.00131836
2430	0.00125244
2442	0.00065918
2454	0.00098877
2466	0.00204346
2478	0.00290039
2490	0.00290039
2502	0.00355957
2514	0.00316406
2526	0.0032959
2538	0.00263672
2550	0.00224121
2562	0.0018457
2574	0.000922852
2586	0.00118652
2598	0.000725098
2610	0.00151611
2622	0.00197754
2634	0.00237305
2646	0.00197754
2658	0.00118652
2670	0.00065918
2682	0.00158203
2694	0.000922852
2706	0.00290039
2718	0.00270264
2730	0.00375733
2742	0.00296631
2754	0.00316406
2766	0.0025708
2778	0.00349365
2790	0.00408692
2802	0.00698731
2814	0.0107446
2826	0.017666
2838	0.0352661
2850	0.064336
2862	0.0502954
2874	0.031311
2886	0.0328931
2898	0.0472632
2910	0.0756079
2922	0.0874073
2934	0.0738941
2946	0.0919556
2958	0.0961744
2970	0.0715869
2982	0.0605786
2994	0.0615015
3006	0.0928785
3018	0.0832544
3030	0.0427149
3042	0.0491748
3054	0.0533936
3066	0.055437
3078	0.0502954
3090	0.0579419
3102	0.025708
3114	0.0117334
3126	0.00797608
3138	0.00547119
3150	0.00322998
3162	0.00250488
3174	0.0025708
3186	0.00237305
3198	0.00270264
3210	0.00125244
3222	0.00224121
3234	0.00098877
3246	0.0018457
3258	0.00125244
3270	0.00197754
3282	0.00197754
3294	0.00263672
3306	0.00171387
3318	0.00217529
3330	0.000197754
3342	0.00224121
3354	0.000197754
3366	0.00131836
3378	0.00098877
3390	0.00197754
3402	0.00138428
3414	0.00171387
3426	0.000725098
3438	0.00171387
3450	0.000527344
3462	0.00210938
3474	0.00125244
3486	0.0018457
3498	0.0014502
3510	0.00171387
3522	0.00230713
3534	0.00270264
3546	0.00547119
3558	0.0102173
3570	0.0322998
3582	0.147854
3594	0.262222
3606	0.0976905
3618	0.0178638
3630	0.00665772
3642	0.00560303
3654	0.00797608
3666	0.00388916
3678	0.00210938
3690	0.00138428
3702	0.00118652
3714	0.00125244
3726	0.000395508
3738	0.00098877
3750	0
3762	0.000922852
3774	0.000527344
3786	0.00138428
3798	0.000593262
3810	0.000725098
3822	0.000725098
3834	0.00105469
3846	0.000527344
3858	0.00164795
3870	0.00138428
3882	0.00303223
3894	0.00158203
3906	0.00098877
3918	0.00112061
3930	0.00118652
3942	0.00250488
3954	0.00065918
3966	0.000725098
