Infrared Spectrum: Propanoic acid, 2-methyl-, ethyl ester
Formula: C 6 H 12 O 2
CAS: 97-62-1
Origin: Sadtler Research Labs Under US-EPA Contract
1/CM	ABSORBANCE
450	0.00598282
462	0.00502811
474	0.00560094
486	0.00579188
498	0.00483717
510	0.00407341
522	0.00712846
534	0.00751035
546	0.000763764
558	0.00375517
570	0.00661929
582	0.00719211
594	0.00757399
606	0.00770129
618	0.00617376
630	0.00655564
642	0.00617376
654	0.00445529
666	0.00133659
678	0.00197306
690	0.00159117
702	0.001082
714	0.00178212
726	0.00280047
738	0.00751035
750	0.0153389
762	0.0224037
774	0.0220219
786	0.0188395
798	0.0131113
810	0.00871964
822	0.00967434
834	0.0146388
846	0.0215763
858	0.0325873
870	0.0299777
882	0.0127294
894	0.00712846
906	0.00891058
918	0.0137478
930	0.0150843
942	0.0115838
954	0.00859234
966	0.00922881
978	0.0103745
990	0.0101835
1002	0.0148298
1014	0.037679
1026	0.0921609
1038	0.103299
1050	0.0620558
1062	0.0822319
1074	0.167137
1086	0.22251
1098	0.204943
1110	0.177321
1122	0.184704
1134	0.242431
1146	0.443747
1158	0.627496
1170	0.460422
1182	0.406832
1194	0.530752
1206	0.337647
1218	0.167773
1230	0.133277
1242	0.158545
1254	0.23263
1266	0.202652
1278	0.0854779
1290	0.0522542
1302	0.0618012
1314	0.0619922
1326	0.0716665
1338	0.122266
1350	0.117047
1362	0.0777766
1374	0.105972
1386	0.133595
1398	0.105272
1410	0.0453167
1422	0.0300414
1434	0.0396521
1446	0.0605919
1458	0.0850324
1470	0.142697
1482	0.128885
1494	0.0463987
1506	0.0229766
1518	0.0148298
1530	0.0108836
1542	0.00897423
1554	0.00814682
1566	0.00579188
1578	0.00496447
1590	0.00464623
1602	0.00407341
1614	0.0042007
1626	0.00464623
1638	0.00509176
1650	0.00617376
1662	0.00585552
1674	0.00916517
1686	0.013875
1698	0.0229129
1710	0.0381246
1722	0.080959
1734	0.229129
1746	0.537817
1758	0.626796
1770	0.342803
1782	0.101008
1794	0.0413705
1806	0.021449
1818	0.0117747
1830	0.00770129
1842	0.00630105
1854	0.00445529
1866	0.00464623
1878	0.00451894
1890	0.00509176
1902	0.00413705
1914	0.00369153
1926	0.00305506
1938	0.00407341
1950	0.00375517
1962	0.00350058
1974	0.00292776
1986	0.0031187
1998	0.00375517
2010	0.004328
2022	0.00496447
2034	0.00439164
2046	0.00343694
2058	0.00286411
2070	0.00197306
2082	0.00146388
2094	0.00197306
2106	0.00152753
2118	0.00159117
2130	0.00101835
2142	6.3647e-05
2154	0.000445529
2166	0.000190941
2178	0.000509176
2190	6.3647e-05
2202	0
2214	0.000445529
2226	0.000954705
2238	0.00140023
2250	0.000954705
2262	0.00101835
2274	0.000954705
2286	0.00127294
2298	0.002164
2310	0.00254588
2322	0.00273682
2334	0.00254588
2346	0.00197306
2358	0.00178212
2370	0
2382	0.000891058
2394	0.00159117
2406	0.00159117
2418	0.00146388
2430	0.001082
2442	0.00063647
2454	0.00114565
2466	0.00114565
2478	0.001082
2490	0.00133659
2502	0.001082
2514	0.000700117
2526	0.000827411
2538	0.000891058
2550	0.000700117
2562	0.000700117
2574	0.00114565
2586	0.00120929
2598	0.00146388
2610	0.00178212
2622	0.00127294
2634	0.00120929
2646	0.00063647
2658	0.001082
2670	0.000763764
2682	0.000827411
2694	0.000827411
2706	0.000827411
2718	0.00184576
2730	0.00330964
2742	0.00477352
2754	0.00534635
2766	0.00572823
2778	0.00617376
2790	0.00579188
2802	0.0063647
2814	0.00846505
2826	0.0110746
2838	0.0121566
2850	0.0152753
2862	0.0233584
2874	0.0524451
2886	0.101071
2898	0.107309
2910	0.103235
2922	0.116028
2934	0.144988
2946	0.194378
2958	0.199597
2970	0.256116
2982	0.429999
2994	0.368198
3006	0.165864
3018	0.0675931
3030	0.0261589
3042	0.0135568
3054	0.00891058
3066	0.00738305
3078	0.00681023
3090	0.00655564
3102	0.00649199
3114	0.00598282
3126	0.00572823
3138	0.00553729
3150	0.00553729
3162	0.00553729
3174	0.00655564
3186	0.00598282
3198	0.00540999
3210	0.00509176
3222	0.00407341
3234	0.00260953
3246	0.00120929
3258	0.00120929
3270	0.00120929
3282	0.000700117
3294	0.000700117
3306	0.00114565
3318	0.00120929
3330	0.000763764
3342	0.00114565
3354	0.000700117
3366	0.000763764
3378	0.00127294
3390	0.00120929
3402	0.00101835
3414	0.00127294
3426	0.000827411
3438	0.000891058
3450	0.00146388
3462	0.00273682
3474	0.00490082
3486	0.00725576
3498	0.00725576
3510	0.003246
3522	0.00063647
3534	0.000318235
3546	0.00159117
3558	0.00267317
3570	0.00617376
3582	0.00700117
3594	0.00540999
3606	0.00190941
3618	0.000891058
3630	0.00133659
3642	0.00197306
3654	0.00165482
3666	0.00210035
3678	0.00159117
3690	0.00171847
3702	0.0020367
3714	0.00222764
3726	0.00140023
3738	0.00133659
3750	0.001082
3762	0.00235494
3774	0.000827411
3786	0.00133659
3798	0.000381882
3810	0.00127294
3822	0.00127294
3834	0.00152753
3846	0.00210035
3858	0.00159117
3870	0.00114565
3882	0.00063647
3894	0.00165482
3906	0.00152753
3918	0.00178212
3930	0.000254588
3942	0
3954	0.000700117
3966	0.00152753
