Infrared Spectrum: 2-Propenoic acid, 2-methyl-, ethyl ester
Formula: C 6 H 10 O 2
CAS: 97-63-2
Origin: Sadtler Research Labs Under US-EPA Contract
1/CM	ABSORBANCE
450	0.0089255
462	0.0267765
474	0.0089255
486	0.0116882
498	0.0089255
510	0.0214637
522	0.0218887
534	0.00913802
546	0.00977555
558	0.0133883
570	0.017851
582	0.0244389
594	0.0391022
606	0.026139
618	0.0153009
630	0.017426
642	0.0312393
654	0.0495153
666	0.0340019
678	0.0218887
690	0.00786294
702	0.00743792
714	0.0036127
726	0.00233763
738	0.0131757
750	0.00233763
762	0.0150884
774	0.0212512
786	0.0369771
798	0.0599284
810	0.101793
822	0.0858548
834	0.0537655
846	0.0501528
858	0.0567407
870	0.0607784
882	0.0514279
894	0.0293267
906	0.0303892
918	0.0773544
930	0.178935
942	0.245876
954	0.134308
966	0.0488778
978	0.0312393
990	0.0380396
1002	0.0675788
1014	0.125382
1026	0.236313
1038	0.31048
1050	0.186798
1062	0.0716165
1074	0.0544031
1086	0.0754418
1098	0.120707
1110	0.126445
1122	0.13367
1134	0.254377
1146	0.806908
1158	1.91027
1170	2.06052
1182	1.36815
1194	0.715103
1206	0.301342
1218	0.147483
1230	0.0837297
1242	0.061841
1254	0.0575908
1266	0.0771419
1278	0.171497
1290	0.532555
1302	0.731679
1314	0.698527
1326	0.654324
1338	0.160659
1350	0.0635411
1362	0.118157
1374	0.186586
1386	0.165759
1398	0.173835
1410	0.192111
1422	0.141108
1434	0.118794
1446	0.162997
1458	0.222925
1470	0.211449
1482	0.135158
1494	0.0684289
1506	0.0391022
1518	0.0278391
1530	0.0227388
1542	0.0214637
1554	0.0201886
1566	0.0204012
1578	0.0238013
1590	0.027414
1602	0.035277
1614	0.0573782
1626	0.100943
1638	0.154709
1650	0.12942
1662	0.0501528
1674	0.0397397
1686	0.0578033
1698	0.0809671
1710	0.171922
1722	0.591846
1734	1.27295
1746	1.27571
1758	0.489415
1770	0.110081
1782	0.0529155
1794	0.0476027
1806	0.0329394
1818	0.0187011
1830	0.0123257
1842	0.00956304
1854	0.0112631
1866	0.0206137
1878	0.0291141
1890	0.0282641
1902	0.0201886
1914	0.0157259
1926	0.0106256
1938	0.00722541
1950	0.00573782
1962	0.00573782
1974	0.00573782
1986	0.00573782
1998	0.00786294
2010	0.0102006
2022	0.0119007
2034	0.0108381
2046	0.00807546
2058	0.00573782
2070	0.00425024
2082	0.00403773
2094	0.00403773
2106	0.00318768
2118	0.00276266
2130	0.00255014
2142	0.00297517
2154	0.0036127
2166	0.00340019
2178	0.00318768
2190	0.00191261
2202	0.000425024
2214	0.000637536
2226	0.00127507
2238	0.00212512
2250	0.00212512
2262	0.00233763
2274	0.00191261
2286	0.00127507
2298	0.00106256
2310	0.00212512
2322	0.00510029
2334	0.00552531
2346	0.00276266
2358	0.0017001
2370	0
2382	0.000425024
2394	0.000637536
2406	0.00127507
2418	0.00191261
2430	0.00191261
2442	0.00191261
2454	0.00191261
2466	0.00340019
2478	0.00318768
2490	0.00297517
2502	0.00148758
2514	0.00106256
2526	0.000850048
2538	0.00127507
2550	0.00106256
2562	0.00106256
2574	0.00148758
2586	0.00212512
2598	0.0017001
2610	0.000425024
2622	0.000637536
2634	0.000637536
2646	0.000425024
2658	0.000425024
2670	0.000850048
2682	0.00127507
2694	0.00191261
2706	0.00191261
2718	0.00212512
2730	0.00446275
2742	0.00658787
2754	0.00722541
2766	0.00743792
2778	0.00850048
2790	0.00871299
2802	0.00956304
2814	0.0119007
2826	0.0155134
2838	0.0189136
2850	0.0259265
2862	0.0391022
2874	0.0575908
2886	0.0839422
2898	0.0992431
2910	0.112844
2922	0.12432
2934	0.201036
2946	0.264152
2958	0.231001
2970	0.279028
2982	0.453926
2994	0.47964
3006	0.262665
3018	0.142596
3030	0.0767168
3042	0.0493028
3054	0.0386772
3066	0.0284766
3078	0.0193386
3090	0.0214637
3102	0.0393147
3114	0.0459026
3126	0.0221012
3138	0.00956304
3150	0.00828797
3162	0.00765043
3174	0.0053128
3186	0.0036127
3198	0.00318768
3210	0.00297517
3222	0.00297517
3234	0.00318768
3246	0.00212512
3258	0.00148758
3270	0.0017001
3282	0.0017001
3294	0.00106256
3306	0.00127507
3318	0.00106256
3330	0.00212512
3342	0.00233763
3354	0.00297517
3366	0.0036127
3378	0.00340019
3390	0.0036127
3402	0.00191261
3414	0.00276266
3426	0.0036127
3438	0.00807546
3450	0.0140258
3462	0.017001
3474	0.0108381
3486	0.0036127
3498	0.00276266
3510	0.0017001
3522	0.00212512
3534	0.00297517
3546	0.00148758
3558	0.000425024
3570	0.00212512
3582	0.00127507
3594	0.00255014
3606	0.00212512
3618	0.00106256
3630	0.00255014
3642	0.00106256
3654	0.00255014
3666	0.00127507
3678	0.000212512
3690	0
3702	0.00127507
3714	0.00148758
3726	0.00148758
3738	0
3750	0.0017001
3762	0.0017001
3774	0.00191261
3786	0.0017001
3798	0.00212512
3810	0.000850048
3822	0
3834	0.00255014
3846	0.000425024
3858	0
3870	0
3882	0
3894	0.00127507
3906	0.000637536
3918	0.00255014
3930	0.000637536
3942	0.00552531
3954	0.00212512
3966	0.00233763
