Infrared Spectrum: 1,3-Butanediamine, N,N,N',N'-tetramethyl-
Formula: C 8 H 20 N 2
CAS: 97-84-7
Origin: Sadtler Research Labs Under US-EPA Contract
1/CM	ABSORBANCE
450	0.0151593
462	0.0167835
474	0.00745934
486	0.0080609
498	0.0137757
510	0.0193101
522	0.0179265
534	0.0113093
546	0.00794059
558	0.00914371
570	0.0116703
582	0.00727888
594	0.00818122
606	0.00950465
618	0.006557
630	0.00216562
642	0.0020453
654	0.006557
666	0.00613591
678	0.00721872
690	0.0105273
702	0.00968512
714	0.0132343
726	0.0123921
738	0.0147382
750	0.018107
762	0.0219569
774	0.0252655
786	0.0273108
798	0.0164827
810	0.0146781
822	0.0193702
834	0.0301983
846	0.0339881
858	0.0231601
870	0.0172648
882	0.0223179
894	0.0319428
906	0.0292358
918	0.0194304
930	0.0182273
942	0.0321233
954	0.0400037
966	0.040485
978	0.0573888
990	0.0768794
1002	0.0864442
1014	0.0759169
1026	0.0581107
1038	0.114657
1050	0.167113
1062	0.13481
1074	0.0945652
1086	0.079827
1098	0.0887903
1110	0.0718864
1122	0.0777216
1134	0.0785036
1146	0.0827145
1158	0.112131
1170	0.0851207
1182	0.0741122
1194	0.0663521
1206	0.0710442
1218	0.0697208
1230	0.0500498
1242	0.0559451
1254	0.086384
1266	0.122658
1278	0.111469
1290	0.0712247
1302	0.0571482
1314	0.0472826
1326	0.036635
1338	0.0434928
1350	0.0436733
1362	0.0704427
1374	0.118146
1386	0.0978738
1398	0.0410865
1410	0.0284538
1422	0.0291155
1434	0.0588326
1446	0.124342
1458	0.191055
1470	0.177761
1482	0.0889106
1494	0.035853
1506	0.0192499
1518	0.0151593
1530	0.0122117
1542	0.00679763
1554	0.00794059
1566	0.00745934
1578	0.00577498
1590	0.00800075
1602	0.00739919
1614	0.00715856
1626	0.00619607
1638	0.00511326
1650	0.00631638
1662	0.00745934
1674	0.00763981
1686	0.00703825
1698	0.0162421
1710	0.0249647
1722	0.0129335
1734	0.00721872
1746	0.00788044
1758	0.00619607
1770	0.00493279
1782	0.00469217
1794	0.0035492
1806	0.00409061
1818	0.00493279
1830	0.00433123
1842	0.00457186
1854	0.00433123
1866	0.00384998
1878	0.00372967
1890	0.00372967
1902	0.00421092
1914	0.00360936
1926	0.0030078
1938	0.00276718
1950	0.00234608
1962	0.00234608
1974	0.00336874
1986	0.00342889
1998	0.00391014
2010	0.00366952
2022	0.0035492
2034	0.0035492
2046	0.0039703
2058	0.00391014
2070	0.00391014
2082	0.00384998
2094	0.00415076
2106	0.00318827
2118	0.00276718
2130	0.00306796
2142	0.00306796
2154	0.00240624
2166	0.0024664
2178	0.00198515
2190	0.00234608
2202	0.00192499
2214	0.00222577
2226	0.00234608
2238	0.00216562
2250	0.00216562
2262	0.00186484
2274	0.0020453
2286	0.00192499
2298	0.00186484
2310	0.00186484
2322	0.00156406
2334	0.00108281
2346	0.00108281
2358	0.0020453
2370	0.00198515
2382	0.0030078
2394	0.0030078
2406	0.00312811
2418	0.00372967
2430	0.0045117
2442	0.00433123
2454	0.00427108
2466	0.00469217
2478	0.00541404
2490	0.00715856
2502	0.00884293
2514	0.00938434
2526	0.00950465
2538	0.00950465
2550	0.0095648
2562	0.0095648
2574	0.00968512
2586	0.0113093
2598	0.0137156
2610	0.0146179
2622	0.0152195
2634	0.0157007
2646	0.0172648
2658	0.0195507
2670	0.0221976
2682	0.0263483
2694	0.032785
2706	0.0480045
2718	0.0720669
2730	0.0982347
2742	0.12332
2754	0.177941
2766	0.406895
2778	0.60156
2790	0.482271
2802	0.305713
2814	0.291937
2826	0.393781
2838	0.228051
2850	0.162301
2862	0.204891
2874	0.214155
2886	0.205312
2898	0.216923
2910	0.218487
2922	0.256866
2934	0.403948
2946	0.538456
2958	0.491174
2970	0.569798
2982	0.486782
2994	0.19292
3006	0.0708036
3018	0.0368756
3030	0.024664
3042	0.0202124
3054	0.017746
3066	0.0163023
3078	0.0156406
3090	0.0144374
3102	0.0120914
3114	0.0105875
3126	0.0100461
3138	0.00986558
3150	0.0102867
3162	0.0108281
3174	0.00980543
3186	0.00974527
3198	0.00842184
3210	0.00757966
3222	0.006557
3234	0.00523357
3246	0.00439139
3258	0.00318827
3270	0.00282733
3282	0.00234608
3294	0.00312811
3306	0.00282733
3318	0.00294764
3330	0.0030078
3342	0.00252655
3354	0.00210546
3366	0.00192499
3378	0.00312811
3390	0.00288749
3402	0.00330858
3414	0.00198515
3426	0.0024664
3438	0.00240624
3450	0.00258671
3462	0.0030078
3474	0.0024664
3486	0.00210546
3498	0.00114296
3510	0.00126328
3522	0.00168437
3534	0.00222577
3546	0.00336874
3558	0.00240624
3570	0.00222577
3582	0.00138359
3594	0.00108281
3606	0.00156406
3618	0.00366952
3630	0.0030078
3642	0.00324842
3654	0.00222577
3666	0.00318827
3678	0.00168437
3690	0.00306796
3702	0.00433123
3714	0.0045117
3726	0.0050531
3738	0.00457186
3750	0.00409061
3762	0.00559451
3774	0.00715856
3786	0.00842184
3798	0.00763981
3810	0.00763981
3822	0.00721872
3834	0.00727888
3846	0.00914371
3858	0.0106476
3870	0.010407
3882	0.0099859
3894	0.00824137
3906	0.00757966
3918	0.00854215
3930	0.0106476
3942	0.0126328
3954	0
3966	0.00108281
