Infrared Spectrum: 2-Propenoic acid, 2-methyl-, butyl ester
Formula: C 8 H 14 O 2
CAS: 97-88-1
Origin: Sadtler Research Labs Under US-EPA Contract
1/CM	ABSORBANCE
450	0
462	0.016035
474	0.0211892
486	0.021046
498	0.0197575
510	0.0256274
522	0.00930605
534	0.0282045
546	0.0231935
558	0.012599
570	0.0481051
582	0.0259138
594	0.0289203
606	0.0226209
618	0.0167509
630	0.014317
642	0.0251979
654	0.028634
666	0.0197575
678	0.0138875
690	0.00944922
702	0.00787435
714	0.0113104
726	0.0103082
738	0.0173236
750	0.0207597
762	0.0153192
774	0.015176
786	0.0173236
798	0.0313542
810	0.0584134
822	0.05555
834	0.0409466
846	0.0360788
858	0.0276318
870	0.0243389
882	0.021905
894	0.0217618
906	0.0319269
918	0.0534024
930	0.129426
942	0.164216
954	0.0873337
966	0.0644265
978	0.05555
990	0.0469598
1002	0.0635675
1014	0.115825
1026	0.100935
1038	0.0476756
1050	0.0357925
1062	0.0685784
1074	0.0655719
1086	0.0442395
1098	0.0481051
1110	0.0632811
1122	0.0957807
1134	0.165361
1146	0.465732
1158	1.22711
1170	1.33664
1182	0.667888
1194	0.301802
1206	0.145604
1218	0.0808911
1230	0.0654287
1242	0.064856
1254	0.0585565
1266	0.0647128
1278	0.0963534
1290	0.303377
1302	0.432373
1314	0.370524
1326	0.370524
1338	0.127421
1350	0.0641402
1362	0.0524002
1374	0.0565522
1386	0.0787435
1398	0.0980715
1410	0.121838
1422	0.0740189
1434	0.0710123
1446	0.0976419
1458	0.158776
1470	0.150901
1482	0.0853293
1494	0.0393717
1506	0.0247684
1518	0.0187553
1530	0.0166077
1542	0.0173236
1554	0.0148897
1566	0.0158919
1578	0.0194711
1590	0.0203301
1602	0.0243389
1614	0.0355062
1626	0.0545478
1638	0.0913425
1650	0.0710123
1662	0.0287772
1674	0.0279181
1686	0.0392286
1698	0.0495368
1710	0.0844703
1722	0.28319
1734	0.788008
1746	0.702678
1758	0.194282
1770	0.0511117
1782	0.035363
1794	0.034504
1806	0.0220482
1818	0.0157487
1830	0.012599
1842	0.0108809
1854	0.0138875
1866	0.0158919
1878	0.020187
1890	0.0184689
1902	0.0127421
1914	0.0118831
1926	0.0111673
1938	0.0111673
1950	0.0104514
1962	0.0100219
1974	0.0100219
1986	0.0114536
1998	0.0111673
2010	0.0115968
2022	0.00944922
2034	0.00801752
2046	0.00816069
2058	0.00758801
2070	0.00744484
2082	0.0085902
2094	0.00944922
2106	0.00916288
2118	0.00916288
2130	0.00830386
2142	0.00744484
2154	0.00730167
2166	0.00687216
2178	0.00744484
2190	0.00701533
2202	0.00601314
2214	0.00629948
2226	0.00687216
2238	0.00744484
2250	0.0071585
2262	0.00701533
2274	0.0071585
2286	0.0071585
2298	0.00773118
2310	0.00959239
2322	0.0101651
2334	0.0103082
2346	0.00944922
2358	0.0085902
2370	0.00586997
2382	0.00701533
2394	0.00744484
2406	0.00773118
2418	0.00773118
2430	0.00758801
2442	0.00773118
2454	0.00787435
2466	0.00787435
2478	0.00844703
2490	0.00758801
2502	0.0071585
2514	0.00773118
2526	0.00744484
2538	0.00787435
2550	0.00887654
2562	0.00901971
2574	0.00916288
2586	0.00930605
2598	0.00887654
2610	0.00887654
2622	0.00773118
2634	0.00830386
2646	0.0085902
2658	0.00844703
2670	0.0100219
2682	0.0107378
2694	0.00987873
2706	0.0117399
2718	0.0110241
2730	0.0110241
2742	0.0146033
2754	0.0150329
2766	0.012599
2778	0.0133148
2790	0.013458
2802	0.0163214
2814	0.0204733
2826	0.022764
2838	0.0299225
2850	0.0483915
2862	0.0748779
2874	0.121122
2886	0.173093
2898	0.146606
2910	0.149756
2922	0.189271
2934	0.26873
2946	0.355205
2958	0.358927
2970	0.49995
2982	0.363938
2994	0.180824
3006	0.0940627
3018	0.058986
3030	0.0476756
3042	0.0363652
3054	0.0324996
3066	0.0237662
3078	0.0199006
3090	0.0197575
3102	0.0282045
3114	0.035363
3126	0.0146033
3138	0.0138875
3150	0.0130285
3162	0.0111673
3174	0.00987873
3186	0.0108809
3198	0.0108809
3210	0.0105946
3222	0.00930605
3234	0.00930605
3246	0.00944922
3258	0.00801752
3270	0.00901971
3282	0.00687216
3294	0.00930605
3306	0.0085902
3318	0.00830386
3330	0.00744484
3342	0.00873337
3354	0.00830386
3366	0.00816069
3378	0.00816069
3390	0.00787435
3402	0.00844703
3414	0.00873337
3426	0.0104514
3438	0.0114536
3450	0.0154624
3462	0.0153192
3474	0.0150329
3486	0.0103082
3498	0.00816069
3510	0.00672899
3522	0.0101651
3534	0.0105946
3546	0.00644265
3558	0.00901971
3570	0.00830386
3582	0.00930605
3594	0.00973556
3606	0.00887654
3618	0.0103082
3630	0.0124558
3642	0.0127421
3654	0.0113104
3666	0.0130285
3678	0.0113104
3690	0.0141738
3702	0.0124558
3714	0.0128853
3726	0.0124558
3738	0.0120263
3750	0.0107378
3762	0.0115968
3774	0.0115968
3786	0.0140307
3798	0.0140307
3810	0.0130285
3822	0.0164646
3834	0.0163214
3846	0.0114536
3858	0.0146033
3870	0.0147465
3882	0.012599
3894	0.0163214
3906	0.0166077
3918	0.0146033
3930	0.0153192
3942	0.0264865
3954	0.0127421
3966	0.0148897
