Infrared Spectrum: Propanoic acid, 2-methyl-, 2-methylpropyl ester
Formula: C 8 H 16 O 2
CAS: 97-85-8
Origin: Sadtler Research Labs Under US-EPA Contract
1/CM	ABSORBANCE
450	0.0237746
462	0.0303568
474	0.00785936
486	0.0098242
498	0.0290796
510	0.0144416
522	0.0356618
534	0.0293744
546	0.0345812
558	0.0177818
570	0.0452896
582	0.0337952
594	0.0443071
606	0.0368407
618	0.0357601
630	0.0264271
642	0.0306515
654	0.0343847
666	0.0316339
678	0.0296691
690	0.0266236
702	0.0160134
714	0.0299638
726	0.0359566
738	0.0327146
750	0.0403775
762	0.0490228
774	0.033304
786	0.0461737
798	0.0355636
810	0.0440124
822	0.0489245
834	0.0438159
846	0.0359566
858	0.0366443
870	0.0339917
882	0.0346794
894	0.052363
906	0.0602223
918	0.0642503
930	0.067001
942	0.061303
954	0.0640538
966	0.0651344
978	0.0735833
990	0.128992
1002	0.218294
1014	0.0976525
1026	0.0585522
1038	0.0662151
1050	0.0827198
1062	0.15758
1074	0.31575
1086	0.289814
1098	0.232735
1110	0.248651
1122	0.306613
1134	0.415858
1146	0.709504
1158	0.904612
1170	0.516262
1182	0.489933
1194	0.696438
1206	0.364183
1218	0.226055
1230	0.208862
1242	0.276257
1254	0.329405
1266	0.231655
1278	0.132921
1290	0.111799
1302	0.0876319
1314	0.0777094
1326	0.103449
1338	0.160527
1350	0.169566
1362	0.124473
1374	0.158071
1386	0.223795
1398	0.173299
1410	0.0817373
1422	0.0535419
1434	0.0664116
1446	0.0865512
1458	0.136556
1470	0.249928
1482	0.208862
1494	0.0728956
1506	0.0441107
1518	0.0339917
1530	0.0285884
1542	0.0254447
1554	0.0218097
1566	0.021515
1578	0.0201396
1590	0.0188625
1602	0.0206308
1614	0.0224974
1626	0.0196484
1638	0.0159152
1650	0.021515
1662	0.0199431
1674	0.0253464
1686	0.024757
1698	0.0399845
1710	0.0717167
1722	0.12408
1734	0.279007
1746	0.754793
1758	0.913454
1770	0.363004
1782	0.156892
1794	0.0920528
1806	0.0499069
1818	0.0302585
1830	0.0217115
1842	0.0202379
1854	0.015031
1866	0.0169959
1878	0.0142451
1890	0.0137539
1902	0.0116908
1914	0.0153258
1926	0.0118873
1938	0.0115926
1950	0.0130662
1962	0.0108066
1974	0.0146381
1986	0.0140486
1998	0.0144416
2010	0.0100207
2022	0.0122802
2034	0.00992244
2046	0.0118873
2058	0.0133609
2070	0.00894002
2082	0.0119855
2094	0.0104137
2106	0.0112978
2118	0.0103154
2130	0.00992244
2142	0.00736815
2154	0.00844881
2166	0.00933299
2178	0.00707342
2190	0.00923475
2202	0.00599276
2214	0.00805584
2226	0.00510858
2238	0.0067787
2250	0.00530507
2262	0.00648397
2274	0.0086453
2286	0.00766288
2298	0.0127715
2310	0.0155222
2322	0.0173888
2334	0.0135574
2346	0.0162099
2358	0.0124767
2370	0.00913651
2382	0.011789
2394	0.00255429
2406	0.00599276
2418	0.00432265
2430	0.00599276
2442	0.00363495
2454	0.00442089
2466	0.0018666
2478	0.00206308
2490	0.00432265
2502	0.00294726
2514	0.00432265
2526	0.00206308
2538	0.00108066
2550	0.00216132
2562	0.00432265
2574	0.0049121
2586	0.00245605
2598	0.00628749
2610	0.00137539
2622	0.00628749
2634	0.00422441
2646	0.0049121
2658	0.00412616
2670	0.00550155
2682	0.00501034
2694	0.00550155
2706	0.00520683
2718	0.00618925
2730	0.0135574
2742	0.0151293
2754	0.015817
2766	0.0139504
2778	0.0108066
2790	0.0164064
2802	0.0161117
2814	0.0221045
2826	0.0231851
2838	0.0270166
2850	0.0319287
2862	0.0587487
2874	0.129679
2886	0.264271
2898	0.249043
2910	0.221929
2922	0.242167
2934	0.306908
2946	0.411143
2958	0.500543
2970	0.735538
2982	0.804798
2994	0.3353
3006	0.12015
3018	0.0447984
3030	0.0296691
3042	0.0209255
3054	0.015031
3066	0.012182
3078	0.0140486
3090	0.00756463
3102	0.0149328
3114	0.012182
3126	0.00933299
3138	0.0118873
3150	0.00933299
3162	0.0104137
3174	0.0151293
3186	0.015031
3198	0.012575
3210	0.0113961
3222	0.00628749
3234	0.00432265
3246	0.00844881
3258	0.00314374
3270	0.00756463
3282	0.00275078
3294	0.00776112
3306	0.00167011
3318	0.00668046
3330	0.00599276
3342	0.006091
3354	0.00589452
3366	0.00540331
3378	0.00530507
3390	0.00520683
3402	0.00736815
3414	0.00481386
3426	0.00550155
3438	0.00628749
3450	0.00284902
3462	0.0110031
3474	0.00569804
3486	0.015424
3498	0.0098242
3510	0.0111996
3522	0.00334023
3534	0.006091
3546	0.00589452
3558	0.0108066
3570	0.0237746
3582	0.0222027
3594	0.0153258
3606	0.00471562
3618	0.00687694
3630	0.00510858
3642	0.00756463
3654	0.00717167
3666	0.00363495
3678	0.00569804
3690	0.0037332
3702	0.0086453
3714	0.000785936
3726	0.00383144
3738	0.00235781
3750	0.00343847
3762	0.00481386
3774	0.00363495
3786	0.00442089
3798	0.0037332
3810	0.00913651
3822	0.00225957
3834	0.00707342
3846	0.00756463
3858	0.00196484
3870	0.0110031
3882	0.00658221
3894	0.00451913
3906	0.00314374
3918	0.00746639
3930	0.0018666
3942	0.0109049
3954	0
3966	0.00049121
