Infrared Spectrum: 2-Propenoic acid, 2-methyl-, 2-methylpropyl ester
Formula: C 8 H 14 O 2
CAS: 97-86-9
Origin: Sadtler Research Labs Under US-EPA Contract
1/CM	ABSORBANCE
450	0.0542802
462	0.0326719
474	0.0165952
486	0.0242014
498	0.0202254
510	0.0174596
522	0.0205712
534	0.0214355
546	0.0269673
558	0.0264487
570	0.0197068
582	0.0344005
594	0.029906
606	0.0288688
618	0.016941
630	0.0171138
642	0.0276587
654	0.0285231
666	0.0210898
678	0.0127922
690	0.00639608
702	0.00466741
714	0.00397594
726	0.00553174
738	0.00639608
750	0.00708755
762	0.00743328
774	0.00674181
786	0.0122736
798	0.0375121
810	0.0824576
822	0.0705297
834	0.0352649
846	0.0212626
858	0.019534
870	0.0240285
882	0.0212626
894	0.022127
906	0.0382036
918	0.0788274
930	0.171657
942	0.225073
954	0.106313
966	0.0575647
978	0.0523787
990	0.121353
1002	0.174596
1014	0.269154
1026	0.180819
1038	0.0392408
1050	0.02472
1062	0.0240285
1074	0.0295603
1086	0.037685
1098	0.05065
1110	0.0694925
1122	0.109079
1134	0.235618
1146	0.731055
1158	1.66851
1170	1.45675
1182	0.824057
1194	0.426809
1206	0.205712
1218	0.100609
1230	0.0622321
1242	0.0511686
1254	0.054626
1266	0.0696654
1278	0.134491
1290	0.424734
1302	0.490942
1314	0.452566
1326	0.466049
1338	0.123254
1350	0.0853963
1362	0.0748514
1374	0.150049
1386	0.172176
1398	0.135873
1410	0.161976
1422	0.100263
1434	0.0828033
1446	0.108388
1458	0.191191
1470	0.218331
1482	0.131898
1494	0.0492671
1506	0.02472
1518	0.0171138
1530	0.0148666
1542	0.012965
1554	0.0124464
1566	0.0126193
1578	0.0162495
1590	0.020744
1602	0.0261029
1614	0.0399323
1626	0.0615407
1638	0.106832
1650	0.0862606
1662	0.0314618
1674	0.027313
1686	0.0380307
1698	0.0515144
1710	0.0917924
1722	0.337436
1734	0.998134
1746	0.907897
1758	0.255843
1770	0.0615407
1782	0.0357835
1794	0.0357835
1806	0.0214355
1818	0.0122736
1830	0.00968055
1842	0.00777902
1854	0.00985342
1866	0.014348
1878	0.0183239
1890	0.0146937
1902	0.00881622
1914	0.00639608
1926	0.00656895
1938	0.00691468
1950	0.00622321
1962	0.00708755
1974	0.00777902
1986	0.00639608
1998	0.00605034
2010	0.00553174
2022	0.00363021
2034	0.00242014
2046	0.00224727
2058	0.0015558
2070	0.000518601
2082	0.00345734
2094	0.00656895
2106	0.00656895
2118	0.00484028
2130	0.00380307
2142	0.00328447
2154	0.00224727
2166	0.00138294
2178	0.00138294
2190	0.0010372
2202	0.00138294
2214	0.0010372
2226	0.0015558
2238	0.00190154
2250	0.00138294
2262	0.00121007
2274	0.00172867
2286	0.002593
2298	0.00380307
2310	0.00605034
2322	0.00553174
2334	0.00397594
2346	0.00276587
2358	0.0020744
2370	0.000172867
2382	0.0015558
2394	0.00138294
2406	0.00121007
2418	0.0015558
2430	0.0010372
2442	0.00172867
2454	0.00190154
2466	0.0020744
2478	0.002593
2490	0.0020744
2502	0.00121007
2514	0.00172867
2526	0.00224727
2538	0.00293874
2550	0.00328447
2562	0.00242014
2574	0.00311161
2586	0.00293874
2598	0.00293874
2610	0.00363021
2622	0.00449454
2634	0.00484028
2646	0.00380307
2658	0.00587748
2670	0.00466741
2682	0.00293874
2694	0.00414881
2706	0.00570461
2718	0.00639608
2730	0.0105449
2742	0.0136565
2754	0.012965
2766	0.0108906
2778	0.010372
2790	0.0114092
2802	0.0133108
2814	0.0171138
2826	0.0217812
2838	0.0266215
2850	0.0342277
2862	0.05065
2874	0.108215
2886	0.213491
2898	0.206576
2910	0.193438
2922	0.189289
2934	0.265005
2946	0.372701
2958	0.433205
2970	0.68438
2982	0.60175
2994	0.213664
3006	0.0921381
3018	0.0547988
3030	0.0445997
3042	0.0330176
3054	0.0292145
3066	0.0222998
3078	0.0176324
3090	0.0178053
3102	0.0314618
3114	0.0406237
3126	0.0152123
3138	0.0133108
3150	0.0124464
3162	0.011755
3174	0.0119278
3186	0.0124464
3198	0.0101992
3210	0.00968055
3222	0.00691468
3234	0.00466741
3246	0.00501314
3258	0.00414881
3270	0.00726041
3282	0.00639608
3294	0.00518601
3306	0.00397594
3318	0.00484028
3330	0.00380307
3342	0.00570461
3354	0.00622321
3366	0.00691468
3378	0.00553174
3390	0.00656895
3402	0.00484028
3414	0.00570461
3426	0.00587748
3438	0.00760615
3450	0.0121007
3462	0.0146937
3474	0.0105449
3486	0.00622321
3498	0.00432167
3510	0.00328447
3522	0.00449454
3534	0.00380307
3546	0.00242014
3558	0.00414881
3570	0.00345734
3582	0.00397594
3594	0.00293874
3606	0.00293874
3618	0.00397594
3630	0.0020744
3642	0.00328447
3654	0.0015558
3666	0.00293874
3678	0.00293874
3690	0.00224727
3702	0.00328447
3714	0.00190154
3726	0.00276587
3738	0.0015558
3750	0.00328447
3762	0.00242014
3774	0.00172867
3786	0.0020744
3798	0.00224727
3810	0.00138294
3822	0.00397594
3834	0.00172867
3846	0.00293874
3858	0.00380307
3870	0.00363021
3882	0.000864335
3894	0.00535888
3906	0.00432167
3918	0.00345734
3930	0.00242014
3942	0.000518601
3954	0.00293874
3966	0.000172867
