Infrared Spectrum: Propanoic acid, 2-methyl-, butyl ester
Formula: C 8 H 16 O 2
CAS: 97-87-0
Origin: Sadtler Research Labs Under US-EPA Contract
1/CM	ABSORBANCE
450	0.00399917
462	0.000231836
474	0.00347754
486	0.00539019
498	0.00672324
510	0.00875181
522	0.0110702
534	0.00823018
546	0.0083461
558	0.00701304
570	0.00730283
582	0.00921548
594	0.0131567
606	0.0108963
618	0.0102008
630	0.0124032
642	0.0137363
654	0.0122293
666	0.00747671
678	0.0111281
690	0.0108963
702	0.0120555
714	0.0111281
726	0.0149534
738	0.0208073
750	0.0260815
762	0.0250383
774	0.0207493
786	0.0187208
798	0.0179673
810	0.0209232
822	0.023995
834	0.0263713
846	0.0286317
858	0.0210971
870	0.0173297
882	0.0216187
894	0.022604
906	0.025444
918	0.0245746
930	0.0250383
942	0.0293852
954	0.0393542
966	0.039528
978	0.0384848
990	0.0295011
1002	0.0374995
1014	0.0370938
1026	0.0336162
1038	0.0278783
1050	0.0403395
1062	0.0851997
1074	0.165473
1086	0.182339
1098	0.13348
1110	0.129712
1122	0.161764
1134	0.209522
1146	0.366417
1158	0.552059
1170	0.32857
1182	0.291534
1194	0.411393
1206	0.213521
1218	0.126409
1230	0.120902
1242	0.158286
1254	0.199785
1266	0.152084
1278	0.0797516
1290	0.0505402
1302	0.0493231
1314	0.0476423
1326	0.057959
1338	0.0944732
1350	0.103631
1362	0.0626537
1374	0.0543076
1386	0.0768536
1398	0.0861271
1410	0.0369778
1422	0.0272987
1434	0.0354709
1446	0.0520472
1458	0.0762161
1470	0.127336
1482	0.105369
1494	0.0368619
1506	0.019822
1518	0.0157648
1530	0.0139681
1542	0.00996895
1554	0.00967915
1566	0.00938936
1578	0.00828814
1590	0.00927344
1602	0.00863589
1614	0.00875181
1626	0.00799834
1638	0.00747671
1650	0.0080563
1662	0.00938936
1674	0.0100849
1686	0.0117657
1698	0.0205175
1710	0.0380211
1722	0.0677541
1734	0.161995
1746	0.458282
1758	0.532237
1770	0.181586
1782	0.0625378
1794	0.032515
1806	0.0190685
1818	0.0118816
1830	0.00875181
1842	0.00770855
1854	0.00741875
1866	0.00643345
1878	0.00631753
1890	0.00608569
1902	0.00620161
1914	0.00614365
1926	0.00614365
1938	0.00596978
1950	0.00596978
1962	0.00643345
1974	0.00585386
1986	0.00637549
1998	0.00620161
2010	0.00567998
2022	0.00556406
2034	0.00556406
2046	0.00539019
2058	0.00486856
2070	0.0048106
2082	0.00475264
2094	0.00475264
2106	0.00440488
2118	0.00405713
2130	0.00405713
2142	0.0035355
2154	0.00318775
2166	0.00341958
2178	0.00289795
2190	0.00278203
2202	0.00272407
2214	0.00266611
2226	0.00260816
2238	0.0025502
2250	0.00243428
2262	0.00237632
2274	0.00289795
2286	0.00278203
2298	0.00318775
2310	0.00417305
2322	0.0035355
2334	0.00289795
2346	0.00289795
2358	0.00336162
2370	0.00260816
2382	0.00272407
2394	0.00220244
2406	0.00168081
2418	0.00197061
2430	0.00150693
2442	0.00115918
2454	0.000985303
2466	0.000927344
2478	0.000695508
2490	0.000811426
2502	0.000753467
2514	0.000637549
2526	0.000637549
2538	0.000695508
2550	0.000753467
2562	0.00121714
2574	0.0012751
2586	0.00173877
2598	0.00179673
2610	0.00185469
2622	0.00139102
2634	0.00144897
2646	0.00179673
2658	0.00202856
2670	0.0025502
2682	0.00249224
2694	0.00312979
2706	0.00307183
2718	0.00347754
2730	0.00411509
2742	0.00614365
2754	0.00712896
2766	0.00730283
2778	0.0067812
2790	0.0067812
2802	0.00846201
2814	0.0105485
2826	0.0136204
2838	0.0177355
2850	0.0300807
2862	0.0505402
2874	0.0941834
2886	0.155736
2898	0.13232
2910	0.128205
2922	0.161068
2934	0.210333
2946	0.283477
2958	0.301387
2970	0.416667
2982	0.411973
2994	0.198452
3006	0.0754626
3018	0.0333264
3030	0.0196481
3042	0.0144897
3054	0.00991099
3066	0.00828814
3078	0.00683916
3090	0.00544815
3102	0.00562202
3114	0.00504243
3126	0.00504243
3138	0.00469468
3150	0.0048106
3162	0.00469468
3174	0.00486856
3186	0.00533223
3198	0.00498447
3210	0.00394121
3222	0.00237632
3234	0.00156489
3246	0.00168081
3258	0.00144897
3270	0.00156489
3282	0.00104326
3294	0.00115918
3306	0.00139102
3318	0.00156489
3330	0.00173877
3342	0.0012751
3354	0.000985303
3366	0.00179673
3378	0.00139102
3390	0.000811426
3402	0.000985303
3414	0.00144897
3426	0.00150693
3438	0.00202856
3450	0.00202856
3462	0.00243428
3474	0.0048106
3486	0.00654937
3498	0.0045208
3510	0.00214448
3522	0.00191265
3534	0.00121714
3546	0.00121714
3558	0.00139102
3570	0.00202856
3582	0.00295591
3594	0.00191265
3606	0.00144897
3618	0.00133306
3630	0.000521631
3642	0.00150693
3654	0.00104326
3666	0.00156489
3678	0.000231836
3690	0.000753467
3702	0.000637549
3714	0.000695508
3726	0.00110122
3738	0.000463672
3750	0.000173877
3762	0.00133306
3774	0.00144897
3786	0.00139102
3798	0.00133306
3810	0.000927344
3822	0.00150693
3834	0.00139102
3846	0.00208652
3858	0.000985303
3870	0.00156489
3882	0.00144897
3894	0.00191265
3906	0.00202856
3918	0.00168081
3930	0.00168081
3942	0.00191265
3954	0
3966	0.000173877
