Infrared Spectrum: Butanal, 2-ethyl-
Formula: C 6 H 12 O
CAS: 97-96-1
Origin: Sadtler Research Labs Under US-EPA Contract
1/CM	ABSORBANCE
450	0.00611129
462	0.00658139
474	0.00651423
486	0.00678286
498	0.0053054
510	0.00564119
522	0.00550687
534	0.0100064
546	0.00711864
558	0.00644707
570	0.010678
582	0.00967061
594	0.00993924
606	0.00456668
618	0.00651423
630	0.0076559
642	0.00745443
654	0.00732011
666	0.00335785
678	0.00161177
690	0.00382795
702	0.00396226
714	0.0048353
726	0.00940198
738	0.0156476
750	0.0269971
762	0.0488231
774	0.0643364
786	0.0563447
798	0.0411672
810	0.0208187
822	0.00261912
834	0.00967061
846	0.00564119
858	0.00470099
870	0.00550687
882	0.00651423
894	0.00993924
906	0.0126255
918	0.0161848
930	0.0233035
942	0.0319667
954	0.0402942
966	0.0425104
978	0.0344515
990	0.0226991
1002	0.0183339
1014	0.0228334
1026	0.0272657
1038	0.0265942
1050	0.0241094
1062	0.0190054
1074	0.0181324
1086	0.0224976
1098	0.029952
1110	0.0345187
1122	0.0341829
1134	0.04063
1146	0.0576207
1158	0.0529869
1170	0.0477486
1182	0.0359962
1194	0.0192069
1206	0.0116853
1218	0.0136329
1230	0.0179309
1242	0.020953
1254	0.0215574
1266	0.0202814
1278	0.0169236
1290	0.0148417
1302	0.0161177
1314	0.0166549
1326	0.0200799
1338	0.0255197
1350	0.0276687
1362	0.0264599
1374	0.0398241
1386	0.068433
1398	0.0595011
1410	0.0265942
1422	0.014103
1434	0.019677
1446	0.0507035
1458	0.103489
1470	0.111145
1482	0.0599712
1494	0.0200128
1506	0.00644707
1518	0.00349216
1530	0.00389511
1542	0.00208187
1554	0.00396226
1566	0.00523825
1578	0.00416373
1590	0.00382795
1602	0.00355932
1614	0.00409658
1626	0.00449952
1638	0.00584266
1650	0.0076559
1662	0.0146402
1674	0.0219603
1686	0.0324368
1698	0.0531212
1710	0.0944227
1722	0.209396
1734	0.488701
1746	0.625635
1758	0.358417
1770	0.121554
1782	0.0629261
1794	0.0329741
1806	0.0230349
1818	0.0145731
1830	0.00705148
1842	0.00570834
1854	0.00416373
1866	0.00389511
1878	0.00329069
1890	0.00322354
1902	0.00329069
1914	0.00268628
1926	0.00275344
1938	0.00134314
1950	0.000940198
1962	0.000402942
1974	0.000940198
1986	0.000738727
1998	0.000873041
2010	0.000470099
2022	0.000402942
2034	0.000537256
2046	0.00181324
2058	0.0014103
2070	0.0014103
2082	0.00194755
2094	0.00194755
2106	0.00147745
2118	0.00147745
2130	0.00100735
2142	0.000470099
2154	0.00127598
2166	0.00100735
2178	0.000470099
2190	0.000604413
2202	0.00120883
2214	0.00161177
2226	0.00100735
2238	0.000537256
2250	0.000604413
2262	0.000940198
2274	0.00114167
2286	0.00167892
2298	0.00235049
2310	0.00214902
2322	0.00268628
2334	0.00288775
2346	0.00329069
2358	0.00201471
2370	0.00342501
2382	0.00255197
2394	0.00268628
2406	0.00275344
2418	0.00282059
2430	0.00228334
2442	0.00174608
2454	0.00174608
2466	0.0018804
2478	0.00248481
2490	0.00282059
2502	0.00295491
2514	0.00241765
2526	0.00235049
2538	0.00261912
2550	0.00342501
2562	0.00382795
2574	0.00443236
2586	0.00584266
2598	0.00752158
2610	0.0111481
2622	0.0161848
2634	0.0195427
2646	0.0240422
2658	0.0383466
2670	0.0759546
2682	0.142306
2694	0.1781
2706	0.173467
2718	0.132299
2730	0.0953629
2742	0.0805212
2754	0.0738055
2766	0.0656795
2778	0.0707835
2790	0.0969747
2802	0.115644
2814	0.102347
2826	0.0746114
2838	0.0685673
2850	0.0935497
2862	0.158088
2874	0.236997
2886	0.281455
2898	0.241631
2910	0.200128
2922	0.266546
2934	0.396428
2946	0.420067
2958	0.394547
2970	0.585072
2982	0.551359
2994	0.227729
3006	0.0653438
3018	0.0339143
3030	0.025654
3042	0.0224304
3054	0.0213559
3066	0.018804
3078	0.0171922
3090	0.0147074
3102	0.0121554
3114	0.0116853
3126	0.0104093
3138	0.00946914
3150	0.00899904
3162	0.00785737
3174	0.00792453
3186	0.00698433
3198	0.00543972
3210	0.00449952
3222	0.00389511
3234	0.00214902
3246	0.00120883
3258	0.00228334
3270	0.00208187
3282	0.00181324
3294	0.0018804
3306	0.00154461
3318	0.00161177
3330	0.000604413
3342	0.00134314
3354	0.00114167
3366	0.00174608
3378	0.00161177
3390	0.00154461
3402	0.00268628
3414	0.00100735
3426	0.00503677
3438	0.00611129
3450	0.00899904
3462	0.0122226
3474	0.0100064
3486	0.00651423
3498	0.00322354
3510	0.00181324
3522	0.00268628
3534	0.00161177
3546	0.00134314
3558	0.00308922
3570	0.0118196
3582	0.00973776
3594	0.00208187
3606	0.000134314
3618	0.00221618
3630	0.00214902
3642	0.00154461
3654	0.000335785
3666	0.00161177
3678	0.00161177
3690	0.00214902
3702	0.00107451
3714	0
3726	0.000402942
3738	0.000201471
3750	0.00120883
3762	0.00107451
3774	0.000537256
3786	0.00208187
3798	0.00147745
3810	0.00114167
3822	0.000940198
3834	0.0018804
3846	0.00100735
3858	0
3870	0.00134314
3882	0.00067157
3894	0.0018804
3906	0.00161177
3918	0.00161177
3930	0.000201471
3942	0.00134314
3954	0.00167892
3966	0.00241765
