Infrared Spectrum: 2-Propenoic acid, 2-methyl-, 1,2-ethanediyl ester
Formula: C 10 H 14 O 4
CAS: 97-90-5
Origin: Sadtler Research Labs Under US-EPA Contract
1/CM	ABSORBANCE
450	0.0311485
462	0.0164238
474	0.0232198
486	0.019633
498	0.0100053
510	0.0118931
522	0.0135921
534	0.0120819
546	0.00679604
558	0.00962773
570	0.00434192
582	0.0124594
594	0.0215208
606	0.0152911
618	0.00585215
630	0.0130258
642	0.0268066
654	0.0334139
666	0.0234086
678	0.00962773
690	0.00471947
702	0.00169901
714	0.00169901
726	0.00113267
738	0.00226535
750	0.00434192
762	0.00566337
774	0.00660727
786	0.0113267
798	0.0388885
810	0.0775882
822	0.0647512
834	0.0370007
846	0.0339802
858	0.0317149
870	0.0351129
882	0.0468172
894	0.0558786
906	0.0466284
918	0.055501
930	0.128558
942	0.203881
954	0.12365
966	0.0702258
978	0.0377558
990	0.0413426
1002	0.0624858
1014	0.0906139
1026	0.0709809
1038	0.0732463
1050	0.091369
1062	0.0715472
1074	0.0522918
1086	0.0575776
1098	0.0777769
1110	0.125727
1122	0.259382
1134	0.740958
1146	1.78868
1158	1.28917
1170	0.810806
1182	0.638639
1194	0.332062
1206	0.141207
1218	0.0753228
1230	0.0528581
1242	0.0638073
1254	0.0790984
1266	0.108359
1278	0.199351
1290	0.493657
1302	0.449483
1314	0.407574
1326	0.276184
1338	0.153666
1350	0.0900476
1362	0.0604093
1374	0.0804199
1386	0.0787208
1398	0.0942007
1410	0.13913
1422	0.0891037
1434	0.0834403
1446	0.120252
1458	0.175942
1470	0.12214
1482	0.0536132
1494	0.0266178
1506	0.016235
1518	0.011138
1530	0.00906139
1542	0.0101941
1554	0.0105716
1566	0.0118931
1578	0.0168013
1590	0.0183116
1602	0.0256739
1614	0.0394548
1626	0.0600317
1638	0.105716
1650	0.0704146
1662	0.027373
1674	0.0252964
1686	0.0370007
1698	0.0564449
1710	0.0936344
1722	0.231821
1734	0.806464
1746	1.13683
1758	0.449483
1770	0.123839
1782	0.052103
1794	0.0419089
1806	0.0281281
1818	0.014536
1830	0.00849505
1842	0.00698482
1854	0.00943895
1866	0.0122706
1878	0.0186891
1890	0.0181228
1902	0.0105716
1914	0.00773994
1926	0.00755116
1938	0.00679604
1950	0.00792872
1962	0.00792872
1974	0.0071736
1986	0.00698482
1998	0.00641849
2010	0.00604093
2022	0.00566337
2034	0.00490825
2046	0.00377558
2058	0.00302046
2070	0.00302046
2082	0.00377558
2094	0.00377558
2106	0.00377558
2118	0.00283169
2130	0.00226535
2142	0.00132145
2154	0.00169901
2166	0.00132145
2178	0.00132145
2190	0.00151023
2202	0.00113267
2214	0.000943895
2226	0.00169901
2238	0.00169901
2250	0.00188779
2262	0.00151023
2274	0.00169901
2286	0.00169901
2298	0.00302046
2310	0.00434192
2322	0.00509703
2334	0.0035868
2346	0.00302046
2358	0.00226535
2370	0.00113267
2382	0.000943895
2394	0.000755116
2406	0.000755116
2418	0.000943895
2430	0.00132145
2442	0.000755116
2454	0.00132145
2466	0.000943895
2478	0.00169901
2490	0.00113267
2502	0.000755116
2514	0.000755116
2526	0.000566337
2538	0.00132145
2550	0.00132145
2562	0.00151023
2574	0.00113267
2586	0.00151023
2598	0.000755116
2610	0.000377558
2622	0.000755116
2634	0.000566337
2646	0.000755116
2658	0.00113267
2670	0.00113267
2682	0.00132145
2694	0.00132145
2706	0.00207657
2718	0.00226535
2730	0.00226535
2742	0.00434192
2754	0.00471947
2766	0.00320924
2778	0.00302046
2790	0.0035868
2802	0.00547459
2814	0.00622971
2826	0.00830628
2838	0.00962773
2850	0.0132145
2862	0.0207657
2874	0.0296383
2886	0.0353017
2898	0.0439855
2910	0.0445518
2922	0.0460621
2934	0.0804199
2946	0.115533
2958	0.15159
2970	0.165937
2982	0.138941
2994	0.136676
3006	0.0877822
3018	0.0494601
3030	0.0339802
3042	0.023031
3054	0.0217096
3066	0.0143472
3078	0.0103828
3090	0.0120819
3102	0.0211432
3114	0.0319037
3126	0.00906139
3138	0.00566337
3150	0.0035868
3162	0.00207657
3174	0.00245413
3186	0.00207657
3198	0.00188779
3210	0.00188779
3222	0.00169901
3234	0.00132145
3246	0.00151023
3258	0.00264291
3270	0.00132145
3282	0.00264291
3294	0.00113267
3306	0.00188779
3318	0.00169901
3330	0.00169901
3342	0.00264291
3354	0.00207657
3366	0.00320924
3378	0.00396436
3390	0.00207657
3402	0.00264291
3414	0.00226535
3426	0.00283169
3438	0.00302046
3450	0.00755116
3462	0.012837
3474	0.0113267
3486	0.00622971
3498	0.00339802
3510	0.00283169
3522	0.00226535
3534	0.000943895
3546	0.00188779
3558	0.00245413
3570	0.00226535
3582	0.00302046
3594	0.00245413
3606	0.00188779
3618	0.00207657
3630	0.00207657
3642	0.00188779
3654	0.00320924
3666	0.00169901
3678	0.00283169
3690	0.00377558
3702	0.00283169
3714	0.00264291
3726	0.00113267
3738	0.00302046
3750	0.00132145
3762	0.00320924
3774	0.00264291
3786	0.00528581
3798	0.00151023
3810	0.00302046
3822	0.0035868
3834	0.00339802
3846	0.00169901
3858	0.0045307
3870	0.00396436
3882	0.00226535
3894	0.00283169
3906	0.00547459
3918	0.00490825
3930	0
3942	0.00132145
3954	0.00169901
3966	0.00755116
