Infrared Spectrum: 2-Furanmethanol, tetrahydro-
Formula: C 5 H 10 O 2
CAS: 97-99-4
Origin: Sadtler Research Labs Under US-EPA Contract
1/CM	ABSORBANCE
450	0
462	0.0982512
474	0.100442
486	0.100092
498	0.0970241
510	0.0929048
522	0.0566193
534	0.0885225
546	0.0847537
558	0.0811602
570	0.0859807
582	0.0832637
594	0.080459
606	0.0851043
618	0.0863313
630	0.0939565
642	0.0950959
654	0.0881719
666	0.0815984
678	0.0814231
690	0.0795826
702	0.0799332
714	0.0769532
726	0.0755509
738	0.0741485
750	0.0729215
762	0.0758138
774	0.0837896
786	0.0871201
798	0.10833
810	0.1348
822	0.143389
834	0.137341
846	0.1348
858	0.141198
870	0.147859
882	0.144265
894	0.141724
906	0.149086
918	0.154169
930	0.156448
942	0.146106
954	0.14409
966	0.151978
978	0.172487
990	0.182742
1002	0.185547
1014	0.21482
1026	0.311143
1038	0.547963
1050	0.791093
1062	0.8478
1074	0.648055
1086	0.541126
1098	0.464699
1110	0.38091
1122	0.246548
1134	0.15785
1146	0.127788
1158	0.12472
1170	0.139445
1182	0.150663
1194	0.152942
1206	0.155572
1218	0.146456
1230	0.125597
1242	0.111135
1254	0.106227
1266	0.103773
1278	0.103598
1290	0.104825
1302	0.105438
1314	0.110872
1326	0.131294
1338	0.16644
1350	0.190104
1362	0.190104
1374	0.163898
1386	0.171874
1398	0.198869
1410	0.174328
1422	0.114553
1434	0.0950083
1446	0.106402
1458	0.132521
1470	0.133748
1482	0.103773
1494	0.0776544
1506	0.0681886
1518	0.0649457
1530	0.0635433
1542	0.0588981
1554	0.0596869
1566	0.0595116
1578	0.0585475
1590	0.059424
1602	0.0596869
1614	0.059161
1626	0.0595993
1638	0.0574081
1650	0.0583722
1662	0.059161
1674	0.0586352
1686	0.0575834
1698	0.057934
1710	0.0596869
1722	0.0603881
1734	0.0627545
1746	0.0684515
1758	0.0681009
1770	0.0620534
1782	0.0624916
1794	0.0632804
1806	0.0682762
1818	0.0707303
1830	0.0681009
1842	0.0629298
1854	0.0610893
1866	0.0610016
1878	0.0618781
1890	0.0620534
1902	0.0630175
1914	0.0626669
1926	0.0630175
1938	0.0626669
1950	0.0620534
1962	0.0616151
1974	0.062141
1986	0.0615275
1998	0.0615275
2010	0.0617904
2022	0.0617904
2034	0.0619657
2046	0.0625792
2058	0.0626669
2070	0.0635433
2082	0.0641569
2094	0.0635433
2106	0.062404
2118	0.0607387
2130	0.0599499
2142	0.0597746
2154	0.0598622
2166	0.0601252
2178	0.0603881
2190	0.0604757
2202	0.0603004
2214	0.0604757
2226	0.0602128
2238	0.0600375
2250	0.0595993
2262	0.0596869
2274	0.0603004
2286	0.0593363
2298	0.0581093
2310	0.0565317
2322	0.056444
2334	0.0571452
2346	0.056444
2358	0.0580217
2370	0.0580217
2382	0.0567946
2394	0.0597746
2406	0.0605634
2418	0.0595116
2430	0.0589858
2442	0.0593363
2454	0.0589858
2466	0.0585475
2478	0.0589858
2490	0.0588105
2502	0.0584599
2514	0.059161
2526	0.0595116
2538	0.0603881
2550	0.0611769
2562	0.0623163
2574	0.0639816
2586	0.0645951
2598	0.0652086
2610	0.0655592
2622	0.066348
2634	0.0681009
2646	0.0700292
2658	0.0718697
2670	0.0740609
2682	0.0757261
2694	0.0774791
2706	0.0787061
2718	0.0791443
2730	0.0799332
2742	0.0814231
2754	0.0810725
2766	0.0816861
2778	0.0845784
2790	0.0897495
2802	0.0988647
2814	0.112362
2826	0.139532
2838	0.192734
2850	0.306147
2862	0.476794
2874	0.611857
2886	0.618956
2898	0.50116
2910	0.422629
2922	0.44866
2934	0.490116
2946	0.535429
2958	0.595555
2970	0.649807
2982	0.670755
2994	0.426485
3006	0.227792
3018	0.123756
3030	0.0929924
3042	0.0786185
3054	0.0715191
3066	0.0664357
3078	0.0642445
3090	0.0631928
3102	0.0610016
3114	0.0596869
3126	0.0597746
3138	0.059161
3150	0.0589858
3162	0.0582846
3174	0.0574958
3186	0.057934
3198	0.0580217
3210	0.0578464
3222	0.0581093
3234	0.057934
3246	0.0584599
3258	0.0577587
3270	0.0572328
3282	0.0580217
3294	0.0581093
3306	0.0581969
3318	0.0575834
3330	0.0570575
3342	0.0578464
3354	0.0585475
3366	0.0571452
3378	0.0584599
3390	0.0581969
3402	0.0580217
3414	0.0570575
3426	0.0581093
3438	0.0574958
3450	0.0580217
3462	0.0583722
3474	0.0597746
3486	0.0608263
3498	0.0623163
3510	0.0638939
3522	0.0638939
3534	0.0607387
3546	0.0603881
3558	0.062404
3570	0.0644198
3582	0.0662604
3594	0.0716944
3606	0.101319
3618	0.157675
3630	0.174591
3642	0.141636
3654	0.103422
3666	0.0950083
3678	0.0889607
3690	0.0780049
3702	0.0672245
3714	0.0635433
3726	0.0622287
3738	0.0615275
3750	0.0633681
3762	0.0653839
3774	0.0639816
3786	0.064858
3798	0.0615275
3810	0.0610893
3822	0.060914
3834	0.0611769
3846	0.0645951
3858	0.0645075
3870	0.0619657
3882	0.0596869
3894	0.0610893
3906	0.0618781
3918	0.0633681
3930	0.0633681
3942	0.0620534
3954	0.0655592
3966	0.0631928
