Infrared Spectrum: 1-Butanol, 2-ethyl-
Formula: C 6 H 14 O
CAS: 97-95-0
Origin: Sadtler Research Labs Under US-EPA Contract
1/CM	ABSORBANCE
450	0.0267471
462	0.0555677
474	0.0210452
486	0.0433345
498	0.072466
510	0.0449932
522	0.0428161
534	0.0257104
546	0.062721
558	0.0280948
570	0.0386693
582	0.0335894
594	0.0502804
606	0.0371142
618	0.040017
630	0.0454079
642	0.039084
654	0.0429198
666	0.0417794
678	0.0394987
690	0.0414684
702	0.040328
714	0.040328
726	0.0417794
738	0.0477923
750	0.0571227
762	0.064898
774	0.0604402
786	0.0547383
798	0.0481033
810	0.0527685
822	0.0583668
834	0.0643797
846	0.0577447
858	0.0471703
870	0.0500731
882	0.0510061
894	0.0601292
906	0.0669715
918	0.070911
930	0.0833515
942	0.0994205
954	0.106366
966	0.105019
978	0.0890534
990	0.0974507
1002	0.15561
1014	0.230253
1026	0.317959
1038	0.42588
1050	0.425777
1062	0.260836
1074	0.112068
1086	0.0873947
1098	0.0962067
1110	0.0996278
1122	0.0909195
1134	0.0804487
1146	0.0825221
1158	0.0809671
1170	0.0730881
1182	0.0737101
1194	0.0838698
1206	0.0940296
1218	0.0928892
1230	0.0861506
1242	0.0798267
1254	0.0792046
1266	0.0810707
1278	0.0812781
1290	0.0782716
1302	0.0767165
1314	0.0761982
1326	0.0754725
1338	0.0769239
1350	0.0786863
1362	0.0828331
1374	0.114971
1386	0.15447
1398	0.118392
1410	0.0651054
1422	0.0489327
1434	0.0514208
1446	0.0810707
1458	0.154159
1470	0.190962
1482	0.135498
1494	0.0686302
1506	0.0383583
1518	0.0300646
1530	0.0274728
1542	0.0271618
1554	0.024881
1566	0.0234296
1578	0.0220819
1590	0.0208379
1602	0.0205269
1614	0.0199048
1626	0.0187645
1638	0.0187645
1650	0.0177277
1662	0.0173131
1674	0.0167947
1686	0.0153433
1698	0.014825
1710	0.015447
1722	0.015136
1734	0.0161727
1746	0.0172094
1758	0.0175204
1770	0.0180388
1782	0.015136
1794	0.0127515
1806	0.0117148
1818	0.0108855
1830	0.0105744
1842	0.00995242
1854	0.00974507
1866	0.00953773
1878	0.00912305
1890	0.00881204
1902	0.007879
1914	0.007879
1926	0.007879
1938	0.007879
1950	0.007879
1962	0.00777533
1974	0.00725697
1986	0.00673861
1998	0.00746431
2010	0.00694596
2022	0.00684229
2034	0.00684229
2046	0.00736064
2058	0.00808634
2070	0.007879
2082	0.00694596
2094	0.00601292
2106	0.00507988
2118	0.0046652
2130	0.0046652
2142	0.00414684
2154	0.00404317
2166	0.0039395
2178	0.0032138
2190	0.00228076
2202	0.00196975
2214	0.00196975
2226	0.00196975
2238	0.00155507
2250	0.00134772
2262	0.00196975
2274	0.00217709
2286	0.00290279
2298	0.00435418
2310	0.00476887
2322	0.00507988
2334	0.00352481
2346	0.00456152
2358	0.00632393
2370	0.00611659
2382	0.00684229
2394	0.00622026
2406	0.00622026
2418	0.00590925
2430	0.00528722
2442	0.00445785
2454	0.0039395
2466	0.00342114
2478	0.00373216
2490	0.00352481
2502	0.00290279
2514	0.00311013
2526	0.00238443
2538	0.00290279
2550	0.00352481
2562	0.00476887
2574	0.00632393
2586	0.00850102
2598	0.0102634
2610	0.0102634
2622	0.0107818
2634	0.0106781
2646	0.0111965
2658	0.0121295
2670	0.0140993
2682	0.0162763
2694	0.0187645
2706	0.0207342
2718	0.0222893
2730	0.0263324
2742	0.03276
2754	0.0359738
2766	0.0362849
2778	0.0391876
2790	0.0440602
2802	0.0462373
2814	0.0513171
2826	0.0607512
2838	0.0835588
2850	0.141615
2862	0.291627
2874	0.528826
2886	0.661732
2898	0.57413
2910	0.542096
2922	0.67355
2934	0.771623
2946	0.714397
2958	0.742595
2970	1.03671
2982	0.716678
2994	0.218953
3006	0.0867726
3018	0.0543236
3030	0.040328
3042	0.0370105
3054	0.0301683
3066	0.024881
3078	0.0209415
3090	0.0186608
3102	0.0173131
3114	0.016069
3126	0.0144103
3138	0.0138919
3150	0.0144103
3162	0.0130625
3174	0.0121295
3186	0.0106781
3198	0.00694596
3210	0.0071533
3222	0.0046652
3234	0.0032138
3246	0.00445785
3258	0.0024881
3270	0.00549456
3282	0.00186608
3294	0.0046652
3306	0.00373216
3318	0.00311013
3330	0.00331747
3342	0.00279912
3354	0.0046652
3366	0.00414684
3378	0.00414684
3390	0.00414684
3402	0.00549456
3414	0.00487254
3426	0.00269545
3438	0.00518355
3450	0.00746431
3462	0.00632393
3474	0.00684229
3486	0.00622026
3498	0.00663494
3510	0.00725697
3522	0.00342114
3534	0.00497621
3546	0.00279912
3558	0.00601292
3570	0.00611659
3582	0.00622026
3594	0.00404317
3606	0.00953773
3618	0.00663494
3630	0.014825
3642	0.02457
3654	0.0582631
3666	0.100043
3678	0.100561
3690	0.0510061
3702	0.0167947
3714	0.0071533
3726	0.00819001
3738	0.00559823
3750	0.00850102
3762	0.0071533
3774	0.00590925
3786	0.00808634
3798	0.00725697
3810	0.00663494
3822	0.0071533
3834	0.0115075
3846	0.00912305
3858	0.0101598
3870	0.00984875
3882	0.00860469
3894	0.0121295
3906	0.0071533
3918	0.00725697
3930	0.00404317
3942	0.00528722
3954	0.00549456
3966	0.0127515
