Infrared Spectrum: Benzene, (trichloromethyl)-
Formula: C 7 H 5 Cl 3
CAS: 98-07-7
Origin: Sadtler Research Labs Under US-EPA Contract
1/CM	ABSORBANCE
450	0.180981
462	0.02305
474	0.0306598
486	0.0348507
498	0.0241529
510	0.023822
522	0.0211751
534	0.0211751
546	0.0220574
558	0.0270203
570	0.027682
582	0.0275717
594	0.0293363
606	0.0457691
618	0.0916485
630	0.261821
642	0.110949
654	0.0489674
666	0.0970526
678	0.202377
690	0.354021
702	0.570184
714	0.787449
726	1.10287
738	0.824285
750	0.326339
762	0.166423
774	0.157269
786	0.278475
798	0.921558
810	0.790537
822	0.305605
834	0.147674
846	0.145027
858	0.309024
870	0.496071
882	0.105876
894	0.0535995
906	0.0445559
918	0.0362844
930	0.0311009
942	0.027682
954	0.0279026
966	0.0295569
978	0.0308804
990	0.034189
1002	0.0474234
1014	0.0324244
1026	0.0465411
1038	0.0563567
1050	0.0423502
1062	0.0537098
1074	0.045328
1086	0.0327552
1098	0.0280129
1110	0.0282335
1122	0.0281232
1134	0.0287849
1146	0.0288952
1158	0.0480851
1170	0.173592
1182	0.391629
1194	0.179988
1206	0.0477543
1218	0.034189
1230	0.038049
1242	0.0550332
1254	0.0581212
1266	0.0426811
1278	0.0384902
1290	0.0345198
1302	0.0387107
1314	0.0469823
1326	0.0480851
1338	0.040365
1350	0.0285643
1362	0.023822
1374	0.0260277
1386	0.0247043
1398	0.0201825
1410	0.0197414
1422	0.0323141
1434	0.0766495
1446	0.147895
1458	0.117125
1470	0.0543715
1482	0.0704734
1494	0.0876782
1506	0.0540406
1518	0.0232706
1530	0.0199619
1542	0.0173151
1554	0.0168739
1566	0.0179768
1578	0.0191899
1590	0.0283438
1602	0.0263586
1614	0.0181974
1626	0.0165431
1638	0.0154402
1650	0.0177562
1662	0.0141167
1674	0.0127933
1686	0.0106978
1698	0.0140064
1710	0.0185282
1722	0.0176459
1734	0.0220574
1746	0.0286746
1758	0.0302186
1770	0.0325347
1782	0.0496291
1794	0.069922
1806	0.0373873
1818	0.0145579
1830	0.00926411
1842	0.00617607
1854	0.0059555
1866	0.00915382
1878	0.0151093
1890	0.0197414
1902	0.021506
1914	0.010367
1926	0.00992583
1938	0.0162122
1950	0.0208442
1962	0.0236014
1974	0.014227
1986	0.00452177
1998	0.00386004
2010	0.00397033
2022	0.00485263
2034	0.00794066
2046	0.0110287
2058	0.00893325
2070	0.00650693
2082	0.00330861
2094	0.00110287
2106	0.00198517
2118	0.00143373
2130	0.000992583
2142	0.00121316
2154	0.000992583
2166	0.00110287
2178	0.00242631
2190	0.00143373
2202	0.00132344
2214	0.00198517
2226	0.00154402
2238	0.000882296
2250	0.000441148
2262	0.000882296
2274	0.00165431
2286	0.00286746
2298	0.0025366
2310	0.00220574
2322	0.00220574
2334	0.00143373
2346	0.0113596
2358	0.00198517
2370	0.0118007
2382	0.00915382
2394	0.0025366
2406	0.00143373
2418	0.00154402
2430	0.000772009
2442	0.00132344
2454	0.00154402
2466	0.00220574
2478	0.00231603
2490	0.00143373
2502	0.000992583
2514	0.00165431
2526	0.000992583
2538	0.000661722
2550	0.00121316
2562	0.00143373
2574	0.00198517
2586	0.00264689
2598	0.00330861
2610	0.00132344
2622	0.00143373
2634	0.000772009
2646	0.00165431
2658	0.00143373
2670	0.00242631
2682	0.00562464
2694	0.00308804
2706	0.00617607
2718	0.00187488
2730	0.00838181
2742	0.00242631
2754	0.0120213
2766	0.00882296
2778	0.0177562
2790	0.00628636
2802	0.00827153
2814	0.00374976
2826	0.00452177
2838	0.00231603
2850	0.00386004
2862	0.00716865
2874	0.00474234
2886	0.00474234
2898	0.00496292
2910	0.00705837
2922	0.00386004
2934	0.00606578
2946	0.0127933
2958	0.00551435
2970	0.00452177
2982	0.0153299
2994	0.00794066
3006	0.0118007
3018	0.0277923
3030	0.0446662
3042	0.0662825
3054	0.0751054
3066	0.133006
3078	0.213736
3090	0.114698
3102	0.0657311
3114	0.0441148
3126	0.0158813
3138	0.00617607
3150	0.0059555
3162	0.00672751
3174	0.00772009
3186	0.00352918
3198	0.00275717
3210	0.00242631
3222	0.00397033
3234	0.00110287
3246	0.00132344
3258	0.0025366
3270	0.00209545
3282	0.00275717
3294	0.00165431
3306	0.00330861
3318	0.0034189
3330	0.00286746
3342	0.000551435
3354	0.00374976
3366	0.00198517
3378	0.00154402
3390	0.00132344
3402	0.00275717
3414	0.00198517
3426	0.00121316
3438	0.00308804
3450	0.00132344
3462	0.00264689
3474	0.000882296
3486	0.00121316
3498	0.00419091
3510	0.00286746
3522	0.00209545
3534	0.00286746
3546	0.0034189
3558	0.00297775
3570	0.00397033
3582	0.0025366
3594	0.00452177
3606	0.000661722
3618	0.00286746
3630	0.00209545
3642	0.00606578
3654	0.00628636
3666	0.00397033
3678	0.00496292
3690	0.0025366
3702	0.00639665
3714	0.00694808
3726	0.00617607
3738	0.00463205
3750	0.00474234
3762	0.00209545
3774	0.00386004
3786	0.00220574
3798	0
3810	0.00286746
3822	0.00441148
3834	0.00628636
3846	0.00397033
3858	0.00617607
3870	0.00628636
3882	0.00430119
3894	0.00209545
3906	0.00716865
3918	0.00661722
3930	0.0109184
3942	0.00738923
3954	0.00970526
3966	0.00485263
