Infrared Spectrum: Benzene, tert-butyl-
Formula: C 10 H 14
CAS: 98-06-6
Origin: Sadtler Research Labs Under US-EPA Contract
1/CM	ABSORBANCE
450	0.00160024
462	0.00142243
474	0.000770484
486	0.000533412
498	0.00248926
510	0.00397096
522	0.0158838
534	0.0407171
546	0.0648392
558	0.023885
570	0.00355608
582	0.00248926
594	0.00260779
606	0.00302267
618	0.00237072
630	0.00124463
642	0.00320047
654	0.00456364
666	0.0161209
678	0.0548229
690	0.125174
702	0.134657
714	0.0586753
726	0.0141058
738	0.0192621
750	0.0586753
762	0.11095
774	0.0457549
786	0.00800118
798	0.00391169
810	0.00219292
822	0.00177804
834	0.0138094
846	0.0087124
858	0.00100756
870	0.00420803
882	0.00628241
894	0.00521558
906	0.00485998
918	0.00515632
930	0.00628241
942	0.00331901
954	0.00118536
966	0.00118536
978	0.00088902
990	0.00088902
1002	0.00195584
1014	0.00752704
1026	0.0389391
1038	0.0373981
1050	0.00474144
1062	0.00563046
1074	0.0116758
1086	0.0122685
1098	0.00960142
1110	0.0264928
1122	0.0182545
1134	0.00171877
1146	0.00100756
1158	0.00195584
1170	0.00207438
1182	0.00563046
1194	0.016595
1206	0.0201511
1218	0.00669728
1230	0.0087124
1242	0.0105497
1254	0.0237665
1266	0.0699362
1278	0.0480663
1290	0.00865313
1302	0.00391169
1314	0.0031412
1326	0.00302267
1338	0.00503778
1350	0.0153504
1362	0.0579641
1374	0.0836864
1386	0.0400059
1398	0.0309379
1410	0.0142836
1422	0.0110238
1434	0.0253074
1446	0.043562
1458	0.0535783
1470	0.0543488
1482	0.060157
1494	0.108579
1506	0.0731367
1518	0.0102534
1530	0.00948288
1542	0.00646021
1554	0.00343754
1566	0.00325974
1578	0.00681582
1590	0.0212179
1602	0.0413098
1614	0.0250111
1626	0.00533412
1638	0.00201511
1650	0.00237072
1662	0.00438583
1674	0.00432656
1686	0.00242999
1698	0.00242999
1710	0.00171877
1722	0.0029634
1734	0.0061046
1746	0.00503778
1758	0.00231145
1770	0.00213365
1782	0.00580826
1794	0.0110831
1806	0.0061046
1818	0.00254852
1830	0.00189658
1842	0.00171877
1854	0.00397096
1866	0.0061046
1878	0.00776411
1890	0.00503778
1902	0.00213365
1914	0.00207438
1926	0.0046229
1938	0.00794191
1950	0.00983849
1962	0.00604534
1974	0.0014817
1986	0.000651948
1998	0.000533412
2010	0.000474144
2022	0.000533412
2034	0.000533412
2046	0.000355608
2058	0
2070	0.000118536
2082	5.9268e-05
2094	0.000118536
2106	0.000533412
2118	5.9268e-05
2130	0.000414876
2142	5.9268e-05
2154	0.000533412
2166	0.000533412
2178	0.00088902
2190	0.000533412
2202	0.00106682
2214	0.000770484
2226	0.000474144
2238	0.000474144
2250	0.000474144
2262	0.000533412
2274	0.00100756
2286	0.00100756
2298	0.00118536
2310	0.00171877
2322	0.00177804
2334	0.00136316
2346	0.00237072
2358	0.0014817
2370	0.00248926
2382	0.00266706
2394	0.0016595
2406	0.00112609
2418	0.00112609
2430	0.00106682
2442	0.00106682
2454	0.00112609
2466	0.00059268
2478	0.00118536
2490	0.00118536
2502	0.00112609
2514	0.000711216
2526	0.0013039
2538	0.00106682
2550	0.00112609
2562	0.00219292
2574	0.00260779
2586	0.00237072
2598	0.00242999
2610	0.00219292
2622	0.00219292
2634	0.00260779
2646	0.00272633
2658	0.00325974
2670	0.00272633
2682	0.00177804
2694	0.00189658
2706	0.00272633
2718	0.00450437
2730	0.00521558
2742	0.00468217
2754	0.00474144
2766	0.00385242
2778	0.00373388
2790	0.0042673
2802	0.00527485
2814	0.0074085
2826	0.00942361
2838	0.0120314
2850	0.0177804
2862	0.0443325
2874	0.102474
2886	0.115098
2898	0.106268
2910	0.134361
2922	0.142006
2934	0.129145
2946	0.156171
2958	0.350926
2970	0.59268
2982	0.345651
2994	0.0842198
3006	0.0279745
3018	0.034494
3030	0.0649577
3042	0.0891391
3054	0.0784708
3066	0.114209
3078	0.107334
3090	0.0717143
3102	0.0603941
3114	0.0322418
3126	0.0140465
3138	0.00675655
3150	0.00557119
3162	0.00681582
3174	0.00634168
3186	0.00551192
3198	0.00539339
3210	0.00480071
3222	0.00485998
3234	0.00403022
3246	0.00361535
3258	0.0031412
3270	0.00284486
3282	0.00379315
3294	0.0029634
3306	0.00207438
3318	0.00142243
3330	0.00100756
3342	0.0013039
3354	0.00124463
3366	0.00207438
3378	0.000948288
3390	0.000474144
3402	0.000474144
3414	0.000770484
3426	0.0013039
3438	0.000948288
3450	0.000533412
3462	0.000474144
3474	0.00059268
3486	0.000474144
3498	0.00136316
3510	0.00171877
3522	0.000770484
3534	0
3546	0.000533412
3558	0.000474144
3570	0.00059268
3582	0.000414876
3594	0.000474144
3606	0.00142243
3618	0.000533412
3630	0.00059268
3642	0.000414876
3654	0.00195584
3666	0.00183731
3678	0.00100756
3690	0.000414876
3702	0.000474144
3714	0.0014817
3726	0.00154097
3738	0.00219292
3750	0.00207438
3762	0.00136316
3774	0.00195584
3786	0.0016595
3798	0.00136316
3810	0.00183731
3822	0.00189658
3834	0.00183731
3846	0.00189658
3858	0.00142243
3870	0.00183731
3882	0.00242999
3894	0.00248926
3906	0.00284486
3918	0.00237072
3930	0.00272633
3942	0.00177804
3954	0.00219292
3966	0.00177804
