Infrared Spectrum: Benzene, (trifluoromethyl)-
Formula: C 7 H 5 F 3
CAS: 98-08-8
Origin: Sadtler Research Labs Under US-EPA Contract
1/CM	ABSORBANCE
450	0.0218349
462	0.00774787
474	0.00657395
486	0.0160827
498	0.00105653
510	0.0135001
522	0.011974
534	0.014087
546	0.00950875
558	0.00868701
570	0.0144392
582	0.0177262
594	0.026061
606	0.0297002
618	0.0142044
630	0.0187827
642	0.0143218
654	0.0859309
666	0.0933266
678	0.0626873
690	0.106475
702	0.104361
714	0.0597525
726	0.020074
738	0.0133827
750	0.0443742
762	0.0838179
774	0.10037
786	0.0565829
798	0.0189001
810	0.0127957
822	0.0102131
834	0.0117392
846	0.0108001
858	0.00903918
870	0.0112696
882	0.0135001
894	0.0176088
906	0.0198392
918	0.0228914
930	0.0201914
942	0.0171392
954	0.0122088
966	0.0118566
978	0.014674
990	0.0132653
1002	0.0142044
1014	0.0288784
1026	0.108353
1038	0.0635091
1050	0.0232436
1062	0.137583
1074	0.388098
1086	0.0991962
1098	0.0665613
1110	0.0699656
1122	0.106592
1134	0.269297
1146	0.676647
1158	0.683339
1170	0.516642
1182	0.511125
1194	0.223632
1206	0.0484829
1218	0.0225393
1230	0.0271176
1242	0.0271176
1254	0.0186653
1266	0.0240654
1278	0.0285263
1290	0.0336915
1302	0.0731352
1314	0.381289
1326	1.17392
1338	0.456068
1350	0.050009
1362	0.0432003
1374	0.0370959
1386	0.0234784
1398	0.0192523
1410	0.0142044
1422	0.0193697
1434	0.0281741
1446	0.0402655
1458	0.052709
1470	0.0390915
1482	0.0147914
1494	0.0118566
1506	0.0162001
1518	0.0166697
1530	0.0162001
1542	0.020074
1554	0.0123262
1566	0.00845222
1578	0.00856962
1590	0.00950875
1602	0.0154957
1614	0.0271176
1626	0.0187827
1638	0.0116218
1650	0.0174914
1662	0.0189001
1674	0.017374
1686	0.0171392
1698	0.0166697
1710	0.00833483
1722	0.00856962
1734	0.015261
1746	0.0131479
1758	0.0132653
1770	0.0130305
1782	0.00939136
1794	0.0112696
1806	0.0135001
1818	0.00986093
1830	0.00856962
1842	0.00774787
1854	0.00504786
1866	0.00645656
1878	0.00704352
1890	0.00986093
1902	0.011974
1914	0.0112696
1926	0.00774787
1938	0.00774787
1950	0.0102131
1962	0.00962614
1974	0.00856962
1986	0.00540003
1998	0.00504786
2010	0.00481307
2022	0.00551742
2034	0.00457829
2046	0.00528264
2058	0.00540003
2070	0.00399133
2082	0.00422611
2094	0.00704352
2106	0.00516525
2118	0.00305219
2130	0.00363915
2142	0.00375654
2154	0.00316958
2166	0.00399133
2178	0.00340437
2190	0.00328698
2202	0.00399133
2214	0.00481307
2226	0.00457829
2238	0.00516525
2250	0.00598699
2262	0.00563482
2274	0.00575221
2286	0.00575221
2298	0.00633917
2310	0.0073957
2322	0.00856962
2334	0.00692613
2346	0.00645656
2358	0.00575221
2370	0.0044609
2382	0.00352176
2394	0.00399133
2406	0.00387394
2418	0.00352176
2430	0.00328698
2442	0.00305219
2454	0.00340437
2466	0.00375654
2478	0.00422611
2490	0.0043435
2502	0.0043435
2514	0.00363915
2526	0.00340437
2538	0.0029348
2550	0.00281741
2562	0.00316958
2574	0.0029348
2586	0.00328698
2598	0.00352176
2610	0.00328698
2622	0.00270002
2634	0.00246523
2646	0.00305219
2658	0.00187827
2670	0.000117392
2682	0.00105653
2694	0.00211306
2706	0.00281741
2718	0.00281741
2730	0.00246523
2742	0.00305219
2754	0.00223045
2766	0.00258262
2778	0.00316958
2790	0.0029348
2802	0.0029348
2814	0.00352176
2826	0.00422611
2838	0.0044609
2850	0.0029348
2862	0.00316958
2874	0.00352176
2886	0.00481307
2898	0.00375654
2910	0.00340437
2922	0.00563482
2934	0.00751309
2946	0.0058696
2958	0.00457829
2970	0.00469568
2982	0.0043435
2994	0.00422611
3006	0.00516525
3018	0.00645656
3030	0.00927397
3042	0.0167871
3054	0.0311089
3066	0.0400307
3078	0.0461351
3090	0.0378002
3102	0.0201914
3114	0.0183132
3126	0.011974
3138	0.00610438
3150	0.00246523
3162	0.00281741
3174	0.00340437
3186	0.00399133
3198	0.00234784
3210	0.00234784
3222	0.0029348
3234	0.00305219
3246	0.00223045
3258	0.00258262
3270	0.00234784
3282	0.00305219
3294	0.00129131
3306	0.00305219
3318	0.00305219
3330	0.00234784
3342	0.00281741
3354	0.000704352
3366	0.0029348
3378	0.000939136
3390	0.00211306
3402	0.00187827
3414	0.00246523
3426	0.00281741
3438	0.00352176
3450	0.00340437
3462	0.00223045
3474	0.00258262
3486	0.0043435
3498	0.00363915
3510	0.00493046
3522	0.00504786
3534	0.00363915
3546	0.00493046
3558	0.00493046
3570	0.00504786
3582	0.00563482
3594	0.00563482
3606	0.00481307
3618	0.00340437
3630	0.00786526
3642	0.00551742
3654	0.00598699
3666	0.00669134
3678	0.00504786
3690	0.0058696
3702	0.00680874
3714	0.00610438
3726	0.00680874
3738	0.00704352
3750	0.00680874
3762	0.00633917
3774	0.0072783
3786	0.00551742
3798	0.00680874
3810	0.00657395
3822	0.00481307
3834	0.00833483
3846	0.00669134
3858	0.00340437
3870	0.00410872
3882	0.00410872
3894	0.00704352
3906	0.00352176
3918	0.00270002
3930	0.00410872
3942	0.00551742
3954	0.00540003
3966	0.0058696
