Infrared Spectrum: 2-Furancarboxaldehyde
Formula: C 5 H 4 O 2
CAS: 98-01-1
Origin: Sadtler Research Labs Under US-EPA Contract
1/CM	ABSORBANCE
450	0.0204789
462	0.0129069
474	0.0191022
486	0.00533485
498	0.0160046
510	0.0134232
522	0.00894878
534	0.0125627
546	0.00998134
558	0.0106697
570	0.0266743
582	0.0454323
594	0.125971
606	0.0616089
618	0.0366556
630	0.0165208
642	0.0151441
654	0.00808832
666	0.00585113
678	0.00843251
690	0.011186
702	0.018758
714	0.0406137
726	0.164176
738	0.568248
750	0.809521
762	0.656703
774	0.329212
786	0.0949948
798	0.028051
810	0.0364835
822	0.0471532
834	0.0536927
846	0.0376881
858	0.0204789
870	0.0325254
882	0.0712461
894	0.0903483
906	0.0320091
918	0.0423346
930	0.0667717
942	0.108934
954	0.0980924
966	0.0369998
978	0.0378602
990	0.0698694
1002	0.232152
1014	0.26571
1026	0.195152
1038	0.0471532
1050	0.0163487
1062	0.0201348
1074	0.0857018
1086	0.087939
1098	0.0631578
1110	0.018758
1122	0.0184138
1134	0.0332138
1146	0.102567
1158	0.128209
1170	0.100674
1182	0.035451
1194	0.0345905
1206	0.0524881
1218	0.0791623
1230	0.166757
1242	0.16125
1254	0.119776
1266	0.0922413
1278	0.0901762
1290	0.0402695
1302	0.00929297
1314	0.011186
1326	0.00843251
1338	0.0270184
1350	0.0399253
1362	0.0676322
1374	0.0827763
1386	0.106697
1398	0.118916
1410	0.0801949
1422	0.0476695
1434	0.0433672
1446	0.0457765
1458	0.225785
1470	0.453979
1482	0.443481
1494	0.18259
1506	0.0979203
1518	0.0843251
1530	0.035623
1542	0.0536927
1554	0.101362
1566	0.298408
1578	0.380495
1590	0.236971
1602	0.0363114
1614	0.0311487
1626	0.0457765
1638	0.0509392
1650	0.0650508
1662	0.0573066
1674	0.175018
1686	0.263129
1698	0.520922
1710	1.62128
1722	1.41718
1734	0.507327
1746	0.112548
1758	0.0676322
1770	0.069181
1782	0.0378602
1794	0.0294277
1806	0.0173813
1818	0.00963715
1830	0.0192743
1842	0.0189301
1854	0.00826042
1866	0.0147999
1878	0.00929297
1890	0.0101534
1902	0.00963715
1914	0.0175534
1926	0.0158325
1938	0.011186
1950	0.0104976
1962	0.0104976
1974	0.0108418
1986	0.00739996
1998	0.00705577
2010	0.00739996
2022	0.00843251
2034	0.00739996
2046	0.00671159
2058	0.00464648
2070	0.00602322
2082	0.0101534
2094	0.0122185
2106	0.0115302
2118	0.00499067
2130	0.00361393
2142	0.00567904
2154	0.00619531
2166	0.00585113
2178	0.0063674
2190	0.00567904
2202	0.00705577
2214	0.00929297
2226	0.0086046
2238	0.00826042
2250	0.00739996
2262	0.00395812
2274	0.00326975
2286	0.00309766
2298	0.0020651
2310	0.00378602
2322	0.00395812
2334	0.00292556
2346	0.00413021
2358	0.00481858
2370	0.00499067
2382	0.00757205
2394	0.00739996
2406	0.00826042
2418	0.00843251
2430	0.00688368
2442	0.00619531
2454	0.00619531
2466	0.00550694
2478	0.0063674
2490	0.00671159
2502	0.0063674
2514	0.00722786
2526	0.00688368
2538	0.00602322
2550	0.00963715
2562	0.0104976
2574	0.00808832
2586	0.0063674
2598	0.00585113
2610	0.00688368
2622	0.00774414
2634	0.00843251
2646	0.0101534
2658	0.0132511
2670	0.0160046
2682	0.0194464
2694	0.0278789
2706	0.0590276
2718	0.0626415
2730	0.0573066
2742	0.0624694
2754	0.0652229
2766	0.0779577
2778	0.0931018
2790	0.179836
2802	0.19739
2814	0.237659
2826	0.179492
2838	0.177599
2850	0.161939
2862	0.091725
2874	0.04113
2886	0.0209952
2898	0.0132511
2910	0.0127348
2922	0.013079
2934	0.0127348
2946	0.011186
2958	0.00826042
2970	0.00774414
2982	0.00808832
2994	0.00843251
3006	0.0063674
3018	0.00567904
3030	0.00619531
3042	0.00688368
3054	0.00791623
3066	0.00980924
3078	0.0104976
3090	0.00946506
3102	0.00774414
3114	0.0086046
3126	0.0127348
3138	0.0117023
3150	0.00705577
3162	0.00602322
3174	0.00602322
3186	0.00499067
3198	0.00619531
3210	0.0043023
3222	0.00292556
3234	0.00309766
3246	0.00275347
3258	0.00309766
3270	0.00395812
3282	0.00361393
3294	0.00413021
3306	0.00378602
3318	0.00326975
3330	0.00378602
3342	0.00378602
3354	0.00378602
3366	0.00688368
3378	0.00980924
3390	0.0199627
3402	0.0271905
3414	0.0256417
3426	0.0196185
3438	0.00774414
3450	0.0020651
3462	0.0020651
3474	0.00292556
3486	0.00292556
3498	0.00361393
3510	0.00275347
3522	0.00275347
3534	0.00413021
3546	0.00395812
3558	0.00447439
3570	0.0043023
3582	0.00447439
3594	0.00533485
3606	0.00464648
3618	0.00413021
3630	0.00378602
3642	0.00447439
3654	0.00292556
3666	0.00361393
3678	0.0043023
3690	0.00240929
3702	0.00447439
3714	0.00395812
3726	0.00378602
3738	0.0043023
3750	0.00275347
3762	0.00292556
3774	0.00378602
3786	0.00344184
3798	0.00361393
3810	0.00361393
3822	0.00361393
3834	0.00344184
3846	0.00447439
3858	0.00275347
3870	0.00413021
3882	0.00481858
3894	0.00395812
3906	0.00602322
3918	0.00464648
3930	0.00292556
3942	0.00361393
3954	0.00413021
3966	0.00344184
