Infrared Spectrum: 2-Thiophenecarboxaldehyde
Formula: C 5 H 4 O S
CAS: 98-03-3
Origin: Sadtler Research Labs Under US-EPA Contract
1/CM	ABSORBANCE
450	0.00779285
462	0.0111531
474	0.00493309
486	0.00378918
498	0.000929422
510	0.000428964
522	0.00178735
534	0.00228781
546	0.00614848
558	0.00822181
570	0.0168011
582	0.0163721
594	0.00993767
606	0.00557653
618	0.00343171
630	0.00507607
642	0.0164436
654	0.0800733
666	0.0930137
678	0.0336737
690	0.024165
702	0.0938716
714	0.178092
726	0.113246
738	0.0632007
750	0.0391787
762	0.0366764
774	0.0174445
786	0.00428964
798	0.0128689
810	0.0388212
822	0.0464711
834	0.0441833
846	0.0274537
858	0.0308854
870	0.024308
882	0.00514757
894	0.00164436
906	0.00142988
918	0.0011439
930	0.0011439
942	0.00071494
954	0.0011439
966	0.00193034
978	0.00178735
990	0.000786434
1002	0.00171586
1014	0.00579101
1026	0.0199468
1038	0.0615563
1050	0.0437543
1062	0.0137268
1074	0.00579101
1086	0.00564803
1098	0.00486159
1110	0.00536205
1122	0.00722089
1134	0.0131549
1146	0.0145848
1158	0.00929422
1170	0.00815032
1182	0.0289551
1194	0.122755
1206	0.17323
1218	0.113318
1230	0.0484729
1242	0.0529771
1254	0.0204473
1266	0.00428964
1278	0.00464711
1290	0.00636297
1302	0.0060055
1314	0.00657745
1326	0.0060055
1338	0.00679193
1350	0.0288121
1362	0.0275967
1374	0.0111531
1386	0.0178735
1398	0.0287406
1410	0.0981613
1422	0.140057
1434	0.0963739
1446	0.0187314
1458	0.00221631
1470	0.00193034
1482	0.00314574
1494	0.00450412
1506	0.024022
1518	0.0574097
1530	0.0509037
1542	0.0175875
1554	0.0137268
1566	0.00929422
1578	0.00436113
1590	0.00300275
1602	0.00400366
1614	0.00657745
1626	0.00707791
1638	0.00815032
1650	0.011582
1662	0.0245224
1674	0.041395
1686	0.134337
1698	0.631935
1710	0.657673
1722	0.170728
1734	0.017373
1746	0.0103666
1758	0.00943721
1770	0.00586251
1782	0.00343171
1794	0.00493309
1806	0.00707791
1818	0.00722089
1830	0.0047186
1842	0.00350321
1854	0.00607699
1866	0.0113675
1878	0.012011
1890	0.00672044
1902	0.00307424
1914	0.000786434
1926	0.000500458
1938	0.00142988
1950	0.00164436
1962	0.00164436
1974	0.0011439
1986	0.00071494
1998	0.000142988
2010	0.000214482
2022	0.000142988
2034	0.000786434
2046	0.00035747
2058	0.00071494
2070	0.000643446
2082	0.00164436
2094	0.00207333
2106	0.00157287
2118	0.00164436
2130	0.00157287
2142	0.00157287
2154	0.00293125
2166	0.0024308
2178	0.0011439
2190	0.000571952
2202	0.000571952
2214	0.000500458
2226	0.000500458
2238	0.00100092
2250	0.000571952
2262	0.000857928
2274	0.00100092
2286	0.000500458
2298	0.000500458
2310	7.1494e-05
2322	0
2334	0.000142988
2346	0.00107241
2358	7.1494e-05
2370	0.0024308
2382	0.00221631
2394	0.00142988
2406	0.00150137
2418	0.00200183
2430	0.00171586
2442	0.00257378
2454	0.00250229
2466	0.00307424
2478	0.0024308
2490	0.00178735
2502	0.00207333
2514	0.00164436
2526	0.00157287
2538	0.00157287
2550	0.0023593
2562	0.00164436
2574	0.00164436
2586	0.00214482
2598	0.00278827
2610	0.00450412
2622	0.00507607
2634	0.0047186
2646	0.00493309
2658	0.00607699
2670	0.00800733
2682	0.00907974
2694	0.0146563
2706	0.024308
2718	0.0321008
2730	0.0391072
2742	0.0463996
2754	0.047186
2766	0.0427534
2778	0.0442548
2790	0.059769
2802	0.0757121
2814	0.0802163
2826	0.0815032
2838	0.0451127
2850	0.0247369
2862	0.0117965
2874	0.0082933
2886	0.00629147
2898	0.00679193
2910	0.00607699
2922	0.00679193
2934	0.00686342
2946	0.00571952
2958	0.00521906
2970	0.00400366
2982	0.00407516
2994	0.00378918
3006	0.00328872
3018	0.00393217
3030	0.00421815
3042	0.0047186
3054	0.00428964
3066	0.00550504
3078	0.0115105
3090	0.0160862
3102	0.0130834
3114	0.00907974
3126	0.00643446
3138	0.0035747
3150	0.00178735
3162	0.00228781
3174	0.00185884
3186	0.00207333
3198	0.00142988
3210	0.00185884
3222	0.00228781
3234	0.00200183
3246	0.00193034
3258	0.00164436
3270	0.00135839
3282	0.00178735
3294	0.000929422
3306	0.00150137
3318	0.00107241
3330	0.00142988
3342	0.0023593
3354	0.00200183
3366	0.0047186
3378	0.00679193
3390	0.0111531
3402	0.00907974
3414	0.00264528
3426	0.00135839
3438	0.000857928
3450	0.00128689
3462	0.000643446
3474	0.0011439
3486	0.000929422
3498	0.000500458
3510	0.0012154
3522	0.000214482
3534	0.00221631
3546	0.00171586
3558	0.000786434
3570	0.00164436
3582	0.00207333
3594	0.00228781
3606	0.000786434
3618	0.000857928
3630	0.00214482
3642	0.00100092
3654	0.00364619
3666	0.000857928
3678	0.00171586
3690	0.00142988
3702	0.000786434
3714	0.00135839
3726	0.000786434
3738	0.00193034
3750	0.00164436
3762	0.0023593
3774	0.00185884
3786	0.00157287
3798	0.00178735
3810	0.00214482
3822	0.00200183
3834	0.00207333
3846	0.00343171
3858	0.00378918
3870	0.00221631
3882	0.00135839
3894	0.00185884
3906	0.00135839
3918	0.00157287
3930	0.00257378
3942	0.00250229
3954	0.00157287
3966	0.00271677
