Infrared Spectrum: Benzene, 1-chloro-3-(trifluoromethyl)-
Formula: C 7 H 4 Cl F 3
CAS: 98-15-7
Origin: Sadtler Research Labs Under US-EPA Contract
1/CM	ABSORBANCE
450	0.00143685
462	0.00126443
474	0.000172422
486	0.00172422
498	0.00850615
510	0.00982805
522	0.00477034
534	0.00528761
546	0.00528761
558	0.00586235
570	0.00695435
582	0.00689688
594	0.0086211
606	0.00850615
618	0.00810383
630	0.0116097
642	0.0124719
654	0.017702
666	0.00821878
678	0.0156904
690	0.0402318
702	0.0439676
714	0.0824752
726	0.0162077
738	0.00471287
750	0.00936826
762	0.0131615
774	0.0182767
786	0.0438527
798	0.0435078
810	0.0484506
822	0.0423583
834	0.0213803
846	0.0127018
858	0.0086211
870	0.00936826
882	0.0188515
894	0.0283347
906	0.0149432
918	0.0083912
930	0.00775899
942	0.00770152
954	0.00747162
966	0.00752909
978	0.00787394
990	0.00770152
1002	0.00971311
1014	0.0171273
1026	0.0141386
1038	0.012242
1050	0.0194262
1062	0.0450021
1074	0.110695
1086	0.0865558
1098	0.0405766
1110	0.0358063
1122	0.0347718
1134	0.0796015
1146	0.262139
1158	0.372144
1170	0.184319
1182	0.305647
1194	0.117764
1206	0.0241391
1218	0.019886
1230	0.0227597
1242	0.014426
1254	0.0193687
1266	0.0645433
1278	0.0467838
1290	0.0550026
1302	0.0878777
1314	0.211849
1326	0.57474
1338	0.0963839
1350	0.0206332
1362	0.0134489
1374	0.0107476
1386	0.00948321
1398	0.015403
1410	0.0252886
1422	0.0364385
1434	0.0683366
1446	0.0239092
1458	0.0131041
1470	0.0134489
1482	0.0180468
1494	0.0170123
1506	0.0105177
1518	0.0072992
1530	0.00666698
1542	0.00890847
1554	0.00741415
1566	0.00879352
1578	0.0181618
1590	0.023277
1602	0.0160927
1614	0.0168399
1626	0.00758657
1638	0.00563245
1650	0.00747162
1662	0.00793141
1674	0.00775899
1686	0.00637961
1698	0.00890847
1710	0.00626467
1722	0.00431055
1734	0.00620719
1746	0.00540256
1758	0.00632214
1770	0.00810383
1782	0.00770152
1794	0.00609224
1806	0.00431055
1818	0.00517266
1830	0.00546003
1842	0.00436802
1854	0.00252886
1866	0.00350591
1878	0.00523013
1890	0.00540256
1902	0.00339097
1914	0.00385076
1926	0.00321854
1938	0.00385076
1950	0.00425308
1962	0.00367834
1974	0.00316107
1986	0.00258633
1998	0.00252886
2010	0.00224149
2022	0.00275875
2034	0.0031036
2046	0.00356339
2058	0.00333349
2070	0.00431055
2082	0.00321854
2094	0.00218401
2106	0.00201159
2118	0.00189664
2130	0.00224149
2142	0.0026438
2154	0.00212654
2166	0.00195412
2178	0.00235643
2190	0.00189664
2202	0.00229896
2214	0.00247138
2226	0.00218401
2238	0.00247138
2250	0.00241391
2262	0.00241391
2274	0.00235643
2286	0.0028737
2298	0.00408065
2310	0.00459792
2322	0.00454045
2334	0.00275875
2346	0.00350591
2358	0.00373581
2370	0.000459792
2382	0.00160927
2394	0.00224149
2406	0.00270128
2418	0.0026438
2430	0.00252886
2442	0.00183917
2454	0.00183917
2466	0.00224149
2478	0.00206906
2490	0.00229896
2502	0.00195412
2514	0.00183917
2526	0.00224149
2538	0.00247138
2550	0.00258633
2562	0.00241391
2574	0.00229896
2586	0.00235643
2598	0.00229896
2610	0.00201159
2622	0.00103453
2634	0.000919584
2646	0.00183917
2658	0.000402318
2670	0.000632214
2682	0.00258633
2694	0.00235643
2706	0.00183917
2718	0.00206906
2730	0.00252886
2742	0.00206906
2754	0.00235643
2766	0.00235643
2778	0.0026438
2790	0.00247138
2802	0.00258633
2814	0.0026438
2826	0.00172422
2838	0.00201159
2850	0.00241391
2862	0.00160927
2874	0.00224149
2886	0.00201159
2898	0.00247138
2910	0.00298865
2922	0.00350591
2934	0.0031036
2946	0.00252886
2958	0.00183917
2970	0.00235643
2982	0.00201159
2994	0.00258633
3006	0.00247138
3018	0.00235643
3030	0.00258633
3042	0.00367834
3054	0.00356339
3066	0.00448297
3078	0.0083912
3090	0.0103453
3102	0.00523013
3114	0.00408065
3126	0.00229896
3138	0.00183917
3150	0.00224149
3162	0.00160927
3174	0.00201159
3186	0.00126443
3198	0.00189664
3210	0.0026438
3222	0.00206906
3234	0.0015518
3246	0.00195412
3258	0.00183917
3270	0.00172422
3282	0.00149432
3294	0.0015518
3306	0.00143685
3318	0.0013219
3330	0.000689688
3342	0.0026438
3354	0.00149432
3366	0.00183917
3378	0.00172422
3390	0.00206906
3402	0.00109201
3414	0.00143685
3426	0.000689688
3438	0.00172422
3450	0.00189664
3462	0.0026438
3474	0.000344844
3486	0.00183917
3498	0.00114948
3510	0.00109201
3522	0.00137938
3534	0.00189664
3546	0.00137938
3558	0.00195412
3570	0.000919584
3582	0.00149432
3594	0.00298865
3606	0.00189664
3618	0.00149432
3630	0.000747162
3642	0.00143685
3654	0.000689688
3666	0.00109201
3678	0.0015518
3690	0.00160927
3702	0.00103453
3714	0.000689688
3726	0.000919584
3738	0.00086211
3750	0.000919584
3762	0.000804636
3774	0.000229896
3786	0.00086211
3798	0.00103453
3810	0.000919584
3822	0
3834	0
3846	0.000344844
3858	0.00057474
3870	0.00086211
3882	0.000517266
3894	0
3906	0.000114948
3918	0
3930	0
3942	0
3954	0.000172422
3966	0.000229896
