Infrared Spectrum: Benzenamine, 3-(trifluoromethyl)-
Formula: C 7 H 6 F 3 N
CAS: 98-16-8
Origin: Sadtler Research Labs Under US-EPA Contract
1/CM	ABSORBANCE
450	0.0071106
462	0.00703949
474	0.00839051
486	0.00782166
498	0.00981263
510	0.0118747
522	0.0127991
534	0.0095282
546	0.000639954
558	0.00362641
570	0.0105948
582	0.00924378
594	0.00547516
606	0.00412415
618	0.00405304
630	0.00888825
642	0.017421
654	0.0581647
666	0.117112
678	0.0956376
690	0.0749457
702	0.0615067
714	0.0278024
726	0.0157144
738	0.0179898
750	0.0249582
762	0.0116614
774	0.0403882
786	0.0750168
798	0.035553
810	0.00995484
822	0.00746613
834	0.00561737
846	0.00839051
858	0.023465
870	0.0418814
882	0.0392505
894	0.0674796
906	0.0434458
918	0.0059018
930	0.00170654
942	0.00177765
954	0.00199097
966	0.00348419
978	0.00312866
990	0.00839051
1002	0.0159277
1014	0.00270203
1026	0.00263092
1038	0.00277313
1050	0.0157144
1062	0.0933622
1074	0.139297
1086	0.041597
1098	0.0297223
1110	0.0330643
1122	0.0625733
1134	0.203719
1146	0.584065
1158	0.325452
1170	0.29637
1182	0.341238
1194	0.112703
1206	0.0260959
1218	0.0168521
1230	0.0239627
1242	0.0941443
1254	0.171437
1266	0.0632843
1278	0.016781
1290	0.01543
1302	0.0299356
1314	0.071106
1326	0.175561
1338	0.71106
1350	0.32979
1362	0.018132
1374	0.00391083
1386	0.00519074
1398	0.00511963
1410	0.0122302
1422	0.0135101
1434	0.00903046
1446	0.0179898
1458	0.0731681
1470	0.134817
1482	0.0500586
1494	0.0302912
1506	0.024176
1518	0.00881714
1530	0.00412415
1542	0
1554	0.00497742
1566	0.00988373
1578	0.0151456
1590	0.03086
1602	0.0541828
1614	0.0797098
1626	0.153305
1638	0.136381
1650	0.04629
1662	0.0211185
1674	0.0129413
1686	0.00568848
1698	0.00263092
1710	0.00433747
1722	0.00497742
1734	0.00376862
1746	0.00540406
1758	0.0059018
1770	0.00348419
1782	0.0023465
1794	0.00135101
1806	0.00199097
1818	0.00277313
1830	0.00227539
1842	0.00412415
1854	0.00511963
1866	0.00213318
1878	0.00263092
1890	0.00277313
1902	0.00341309
1914	0.00497742
1926	0.00718171
1938	0.0047641
1950	0.00263092
1962	0.00206207
1974	0.00199097
1986	0.00206207
1998	0.0024176
2010	0.00263092
2022	0.0023465
2034	0.00255982
2046	0.00277313
2058	0.00277313
2070	0.00305756
2082	0.00248871
2094	0.00284424
2106	0.00142212
2118	0.00191986
2130	0.00199097
2142	0.00298645
2154	0.00298645
2166	0.00220429
2178	0.00149323
2190	0.00199097
2202	0.00199097
2214	0.00255982
2226	0.0024176
2238	0.00248871
2250	0.00255982
2262	0.00248871
2274	0.00298645
2286	0.00341309
2298	0.0024176
2310	0.00305756
2322	0.00305756
2334	0.00334198
2346	0.00440857
2358	0.00255982
2370	0.00426636
2382	0.00391083
2394	0.00277313
2406	0.0024176
2418	0.00177765
2430	0.00184876
2442	0.0012088
2454	0.00127991
2466	0.00177765
2478	0.00177765
2490	0.00220429
2502	0.00220429
2514	0.00220429
2526	0.00227539
2538	0.00199097
2550	0.00213318
2562	0.00213318
2574	0.00170654
2586	0.00184876
2598	0.00213318
2610	0.00255982
2622	0.00263092
2634	0.00213318
2646	0.00170654
2658	0.00199097
2670	0.00298645
2682	0.0024176
2694	0.00177765
2706	0.000782166
2718	0.00127991
2730	0.00135101
2742	0.00135101
2754	0.00135101
2766	0.00071106
2778	0.000782166
2790	0.000213318
2802	0.000426636
2814	0.000568848
2826	0.000782166
2838	0.0012088
2850	0.0011377
2862	0.00127991
2874	0.00149323
2886	0.00184876
2898	0.00191986
2910	0.00227539
2922	0.0023465
2934	0.00334198
2946	0.00291535
2958	0.00248871
2970	0.00248871
2982	0.0024176
2994	0.00291535
3006	0.00248871
3018	0.00540406
3030	0.0172788
3042	0.0200519
3054	0.0168521
3066	0.0217584
3078	0.0142212
3090	0.0095282
3102	0.00703949
3114	0.00440857
3126	0.00327088
3138	0.00170654
3150	0.0011377
3162	0.000426636
3174	0.000497742
3186	0.00106659
3198	0.00177765
3210	0.00298645
3222	0.00348419
3234	0.00305756
3246	0.00206207
3258	0.000924378
3270	0.000497742
3282	0.000995484
3294	0.000995484
3306	0.000497742
3318	0.000142212
3330	0
3342	0.000497742
3354	0.000426636
3366	0.00106659
3378	0.00142212
3390	0.0035553
3402	0.0105948
3414	0.0196964
3426	0.0233939
3438	0.0183453
3450	0.00334198
3462	0.00206207
3474	0.00362641
3486	0.00881714
3498	0.0133679
3510	0.0113059
3522	0.0143634
3534	0.00426636
3546	0.000426636
3558	0.00035553
3570	0.000853272
3582	0.000426636
3594	0.000924378
3606	0.00035553
3618	0.000995484
3630	0.000782166
3642	0.000853272
3654	0.00071106
3666	0.000853272
3678	0.00298645
3690	0.00106659
3702	0.0012088
3714	0.0011377
3726	0.000213318
3738	0.00184876
3750	0.00220429
3762	0.00184876
3774	0.00227539
3786	0.00106659
3798	0.00071106
3810	0.00035553
3822	0.00135101
3834	0.00199097
3846	0.00334198
3858	0.00327088
3870	0.00184876
3882	0.000284424
3894	0.000924378
3906	0.000639954
3918	0.00127991
3930	0.00191986
3942	0.00206207
3954	0.00106659
3966	0.000853272
