Infrared Spectrum: Benzene, 1-(1,1-dimethylethyl)-3,5-dimethyl-
Formula: C 12 H 18
CAS: 98-19-1
Origin: Sadtler Research Labs Under US-EPA Contract
1/CM	ABSORBANCE
450	0.00412827
462	0.0143932
474	0.0108228
486	0.00825655
498	0.0222034
510	0.0184099
522	0.0262201
534	0.0303484
546	0.0155089
558	0.0148395
570	0.0119385
582	0.0108228
594	0.011827
606	0.0135006
618	0.0117154
630	0.0112691
642	0.0103765
654	0.00836813
666	0.00870285
678	0.013389
690	0.0284516
702	0.127977
714	0.0815613
726	0.01629
738	0.0140585
750	0.00736395
762	0.0105996
774	0.0114922
786	0.00156205
798	0.0120501
810	0.0148395
822	0.0142816
834	0.062482
846	0.221365
858	0.0851317
870	0.0160668
882	0.0187446
894	0.0480888
906	0.0697344
918	0.0256623
930	0.0238771
942	0.0309063
954	0.0255507
966	0.0165131
978	0.0222034
990	0.0310178
1002	0.0263317
1014	0.018633
1026	0.0182983
1038	0.0227613
1050	0.0273359
1062	0.0229845
1074	0.0167363
1086	0.0138353
1098	0.0142816
1110	0.0136121
1122	0.0137237
1134	0.0140585
1146	0.0142816
1158	0.0142816
1170	0.0164015
1182	0.0197488
1194	0.0380471
1206	0.0682839
1218	0.0812266
1230	0.15442
1242	0.0476425
1254	0.0200835
1266	0.0188562
1278	0.0191909
1290	0.0369313
1302	0.0897063
1314	0.0382702
1326	0.0199719
1338	0.0232076
1350	0.0439606
1362	0.122398
1374	0.150403
1386	0.0841275
1398	0.0816729
1410	0.0444068
1422	0.0544486
1434	0.0942809
1446	0.113807
1458	0.130096
1470	0.145605
1482	0.188896
1494	0.134113
1506	0.0841275
1518	0.066164
1530	0.0693997
1542	0.0610315
1554	0.0447416
1566	0.0485351
1578	0.0670566
1590	0.124295
1602	0.374892
1614	0.231295
1626	0.0432911
1638	0.0172941
1650	0.013389
1662	0.0102649
1674	0.0107112
1686	0.0102649
1698	0.0110459
1710	0.0114922
1722	0.0196372
1734	0.0257738
1746	0.0172941
1758	0.0235423
1770	0.0199719
1782	0.00993017
1794	0.0080334
1806	0.00658292
1818	0.00569033
1830	0.00602505
1842	0.00591348
1854	0.00546718
1866	0.0062482
1878	0.0062482
1890	0.0071408
1902	0.0066945
1914	0.00591348
1926	0.00680607
1938	0.00680607
1950	0.00613662
1962	0.00457457
1974	0.00390513
1986	0.00390513
1998	0.00412827
2010	0.0040167
2022	0.00468615
2034	0.00479773
2046	0.00502088
2058	0.00524403
2070	0.00479773
2082	0.0026778
2094	0.0026778
2106	0.0031241
2118	0.0035704
2130	0.00345883
2142	0.0040167
2154	0.00479773
2166	0.0058019
2178	0.0049093
2190	0.00390513
2202	0.00390513
2214	0.00368198
2226	0.00323567
2238	0.00323567
2250	0.00334725
2262	0.00379355
2274	0.00390513
2286	0.00412827
2298	0.00301252
2310	0.0008926
2322	0.000111575
2334	0.00167362
2346	0.0022315
2358	0.000111575
2370	0.004463
2382	0.00747553
2394	0.00792183
2406	0.00691765
2418	0.00702923
2430	0.00680607
2442	0.00658292
2454	0.00569033
2466	0.0049093
2478	0.0058019
2490	0.00557875
2502	0.00591348
2514	0.00557875
2526	0.0058019
2538	0.00647135
2550	0.00691765
2562	0.00814498
2574	0.00781025
2586	0.00836813
2598	0.008926
2610	0.00792183
2622	0.00613662
2634	0.00569033
2646	0.00769868
2658	0.00736395
2670	0.00870285
2682	0.00926073
2694	0.0098186
2706	0.0114922
2718	0.0147279
2730	0.0204182
2742	0.0290095
2754	0.0208645
2766	0.0149511
2778	0.0146163
2790	0.017852
2802	0.019414
2814	0.0251044
2826	0.0326915
2838	0.0445184
2850	0.0731932
2862	0.171937
2874	0.335841
2886	0.3287
2898	0.297794
2910	0.385826
2922	0.507666
2934	0.5398
2946	0.454668
2958	0.785265
2970	1.11575
2982	0.579074
2994	0.222257
3006	0.173611
3018	0.209426
3030	0.221588
3042	0.180528
3054	0.148283
3066	0.110125
3078	0.0631514
3090	0.0350345
3102	0.0203066
3114	0.0157321
3126	0.0127195
3138	0.0100418
3150	0.0108228
3162	0.00948388
3174	0.0103765
3186	0.0100418
3198	0.0109344
3210	0.00948388
3222	0.00859128
3234	0.00814498
3246	0.0071408
3258	0.00903758
3270	0.00702923
3282	0.00814498
3294	0.00680607
3306	0.00814498
3318	0.0071408
3330	0.0066945
3342	0.00557875
3354	0.00602505
3366	0.00680607
3378	0.00680607
3390	0.00725238
3402	0.00613662
3414	0.0058019
3426	0.00502088
3438	0.0084797
3450	0.00569033
3462	0.0062482
3474	0.00658292
3486	0.00736395
3498	0.00524403
3510	0.0031241
3522	0.0053556
3534	0.0053556
3546	0.00569033
3558	0.00435142
3570	0.00278938
3582	0.00323567
3594	0.0031241
3606	0.00234308
3618	0.0026778
3630	0.00111575
3642	0.00278938
3654	0.00256623
3666	0.00390513
3678	0.00379355
3690	0.000557875
3702	0.0053556
3714	0.00290095
3726	0.00189678
3738	0.00167362
3750	0.00111575
3762	0.0022315
3774	0.00111575
3786	0.0004463
3798	0.00301252
3810	0.00435142
3822	0.00390513
3834	0.0013389
3846	0.000334725
3858	0.00145048
3870	0.0035704
3882	0.00122733
3894	0.00334725
3906	0.0040167
3918	0.0035704
3930	0.0040167
3942	0.00234308
3954	0.00334725
3966	0.00468615
