Infrared Spectrum: Phenol, 4-(1,1-dimethylethyl)-2-methyl-
Formula: C 11 H 16 O
CAS: 98-27-1
Origin: Sadtler Research Labs Under US-EPA Contract
1/CM	ABSORBANCE
450	0.0058652
462	0.00714995
474	0.00932845
486	0.0126241
498	0.00983118
510	0.00916088
522	0.0149144
534	0.00882572
546	0.00854643
558	0.0121214
570	0.0171487
582	0.0116745
594	0.0244104
606	0.0316162
618	0.0108925
630	0.00273709
642	0.0021785
654	0.00782026
666	0.0156405
678	0.00346326
690	0.00603277
702	0.00268123
714	0.00497145
726	0.0127359
738	0.00843471
750	0.0121773
762	0.0483739
774	0.0194389
786	0.0136296
798	0.0474243
810	0.0832858
822	0.0852408
834	0.0218967
846	0.00770854
858	0.00703823
870	0.0163108
882	0.0314486
894	0.0164225
906	0.00955189
918	0.0141323
930	0.0105574
942	0.0046363
954	0.00603277
966	0.00787612
978	0.0117304
990	0.0227346
1002	0.0168694
1014	0.00944017
1026	0.0117862
1038	0.0117862
1050	0.0103898
1062	0.00910502
1074	0.0132386
1086	0.0341298
1098	0.115963
1110	0.103339
1122	0.187686
1134	0.109037
1146	0.0399392
1158	0.1063
1170	0.171208
1182	0.130207
1194	0.151545
1206	0.268738
1218	0.153221
1230	0.0501614
1242	0.0493794
1254	0.107584
1266	0.218576
1278	0.236563
1290	0.0930611
1302	0.0379283
1314	0.0604394
1326	0.0961892
1338	0.0373697
1350	0.0284322
1362	0.0675335
1374	0.0746276
1386	0.0397716
1398	0.0581492
1410	0.0501614
1422	0.0383193
1434	0.0292143
1446	0.0379283
1458	0.060998
1470	0.0706058
1482	0.0939548
1494	0.124398
1506	0.350124
1518	0.219247
1530	0.0543508
1542	0.0318396
1554	0.0172604
1566	0.0141323
1578	0.0216733
1590	0.0354146
1602	0.0339064
1614	0.0329568
1626	0.0217292
1638	0.00983118
1650	0.00675894
1662	0.00379841
1674	0.00335154
1686	0.00485973
1698	0.00374255
1710	0.00268123
1722	0.00452458
1734	0.00519489
1746	0.00536246
1758	0.00888158
1770	0.00625621
1782	0.00234608
1794	0.00290467
1806	0.00296053
1818	0.00201092
1830	0.00268123
1842	0.00379841
1854	0.00407771
1866	0.00407771
1878	0.00430114
1890	0.00418943
1902	0.00201092
1914	0.00178749
1926	0.00290467
1938	0.00100546
1950	0.000782026
1962	0.000782026
1974	0.000837885
1986	0.000893744
1998	0.00139648
2010	0.000837885
2022	0.00251366
2034	0.00206678
2046	0.00184335
2058	0.0012289
2070	0.00100546
2082	0.00150819
2094	0.00100546
2106	0.0012289
2118	0.00100546
2130	0.000167577
2142	0.00117304
2154	0.000893744
2166	0.000837885
2178	0.00117304
2190	0.00117304
2202	0.000502731
2214	0.0012289
2226	0.00106132
2238	0.000670308
2250	0.0012289
2262	0.00161991
2274	0.00178749
2286	0.00134062
2298	0.00134062
2310	0.00139648
2322	0.00134062
2334	0.0024578
2346	0.00296053
2358	0.00580934
2370	0.00876986
2382	0.00379841
2394	0.00363084
2406	0.00318396
2418	0.00296053
2430	0.00262537
2442	0.00301639
2454	0.00279295
2466	0.00234608
2478	0.00273709
2490	0.00256951
2502	0.00290467
2514	0.0034074
2526	0.00357498
2538	0.00251366
2550	0.00206678
2562	0.00262537
2574	0.00223436
2586	0.00212264
2598	0.00279295
2610	0.0021785
2622	0.00229022
2634	0.00268123
2646	0.00346326
2658	0.0034074
2670	0.00391013
2682	0.00301639
2694	0.00279295
2706	0.00407771
2718	0.0053066
2730	0.00564176
2742	0.00659136
2754	0.00742925
2766	0.00458044
2778	0.00536246
2790	0.00726167
2802	0.00703823
2814	0.00910502
2826	0.0117304
2838	0.0153612
2850	0.0267006
2862	0.0662488
2874	0.126297
2886	0.131827
2898	0.123672
2910	0.154506
2922	0.173107
2934	0.171711
2946	0.191317
2958	0.384477
2970	0.55859
2982	0.264157
2994	0.08161
3006	0.0431231
3018	0.0470891
3030	0.061389
3042	0.0528985
3054	0.0464188
3066	0.044352
3078	0.033292
3090	0.0223995
3102	0.0143558
3114	0.0101663
3126	0.0101663
3138	0.00854643
3150	0.00547418
3162	0.00541832
3174	0.00513903
3186	0.00474802
3198	0.00502731
3210	0.00553004
3222	0.00458044
3234	0.00525075
3246	0.00402185
3258	0.00418943
3270	0.00374255
3282	0.00418943
3294	0.00413357
3306	0.00279295
3318	0.00273709
3330	0.00346326
3342	0.0024578
3354	0.00351912
3366	0.00402185
3378	0.00256951
3390	0.00335154
3402	0.00469216
3414	0.00223436
3426	0.00284881
3438	0.00374255
3450	0.0012289
3462	0.00173163
3474	0.00268123
3486	0.00184335
3498	0.00134062
3510	0.000726167
3522	0.000167577
3534	0.00117304
3546	0.00145233
3558	0.00173163
3570	0.00229022
3582	0.00156405
3594	0.00156405
3606	0.000893744
3618	0.00424528
3630	0.0164784
3642	0.0708851
3654	0.190479
3666	0.0771413
3678	0.0115628
3690	0.00335154
3702	0.00251366
3714	0.00206678
3726	0.000949603
3738	0.00279295
3750	0.00145233
3762	0.00111718
3774	0.00223436
3786	0.00145233
3798	0.00284881
3810	0.00234608
3822	0.00335154
3834	0.00441286
3846	0.00402185
3858	0.00385427
3870	0.00441286
3882	0.00391013
3894	0.00592105
3906	0.00541832
3918	0.00458044
3930	0.00519489
3942	0.00614449
3954	0.000782026
3966	0.00128476
