Infrared Spectrum: Phenol, 2-chloro-4-(1,1-dimethylethyl)-
Formula: C 10 H 13 Cl O
CAS: 98-28-2
Origin: Sadtler Research Labs Under US-EPA Contract
1/CM	ABSORBANCE
450	0
462	0.0191518
474	0.0177155
486	0.0244186
498	0.03579
510	0.0946819
522	0.123051
534	0.0563782
546	0.0359097
558	0.0280096
570	0.0202291
582	0.0213064
594	0.0343536
606	0.0778043
618	0.0661935
630	0.0336354
642	0.0229822
654	0.0317202
666	0.0355506
678	0.0307626
690	0.0414159
702	0.0585328
714	0.127479
726	0.331686
738	0.0818741
750	0.0428522
762	0.0575752
774	0.0435704
786	0.0295657
798	0.0408174
810	0.138252
822	0.35802
834	0.121614
846	0.0448871
858	0.0669117
870	0.146751
882	0.142322
894	0.0557797
906	0.0317202
918	0.0293263
930	0.0269323
942	0.0220246
954	0.0150821
966	0.0144836
978	0.0153215
990	0.0165185
1002	0.0228625
1014	0.0324384
1026	0.0360294
1038	0.0634405
1050	0.153095
1062	0.0958789
1074	0.052907
1086	0.0635602
1098	0.0637996
1110	0.0942031
1122	0.0709815
1134	0.0511115
1146	0.106652
1158	0.148906
1170	0.236166
1182	0.529429
1194	0.694972
1206	0.617288
1218	0.417031
1230	0.156806
1242	0.125923
1254	0.232096
1266	0.45354
1278	0.764757
1290	0.618964
1302	0.135499
1314	0.0993502
1326	0.110482
1338	0.146871
1350	0.102103
1362	0.154771
1374	0.206481
1386	0.114672
1398	0.143878
1410	0.137893
1422	0.0758892
1434	0.080318
1446	0.0925273
1458	0.120776
1470	0.205164
1482	0.390099
1494	0.604001
1506	1.19699
1518	0.391176
1530	0.0931258
1542	0.065236
1554	0.0734952
1566	0.0750513
1578	0.133584
1590	0.120417
1602	0.120058
1614	0.150462
1626	0.0596101
1638	0.0408174
1650	0.0298051
1662	0.0257353
1674	0.0215458
1686	0.0208276
1698	0.0233413
1710	0.0281293
1722	0.0262141
1734	0.0281293
1746	0.0359097
1758	0.0335157
1770	0.0241792
1782	0.0189124
1794	0.0173564
1806	0.0191518
1818	0.0197503
1830	0.0173564
1842	0.0178352
1854	0.0202291
1866	0.0213064
1878	0.0287278
1890	0.0276505
1902	0.0199897
1914	0.0172367
1926	0.0168776
1938	0.0166382
1950	0.01592
1962	0.0153215
1974	0.0167579
1986	0.0165185
1998	0.0175958
2010	0.0191518
2022	0.0161594
2034	0.0149624
2046	0.0140048
2058	0.0144836
2070	0.0150821
2082	0.014723
2094	0.0162791
2106	0.0169973
2118	0.0144836
2130	0.0140048
2142	0.013526
2154	0.013526
2166	0.0142442
2178	0.013526
2190	0.013526
2202	0.0136457
2214	0.0136457
2226	0.0144836
2238	0.0143639
2250	0.0141245
2262	0.0138851
2274	0.0140048
2286	0.0148427
2298	0.0167579
2310	0.0181942
2322	0.0197503
2334	0.0191518
2346	0.0169973
2358	0.0177155
2370	0.0163988
2382	0.0190321
2394	0.0184336
2406	0.0158003
2418	0.0155609
2430	0.0177155
2442	0.017117
2454	0.0168776
2466	0.0192715
2478	0.0204685
2490	0.0203488
2502	0.0195109
2514	0.0191518
2526	0.0204685
2538	0.0215458
2550	0.0202291
2562	0.01987
2574	0.0197503
2586	0.0190321
2598	0.0192715
2610	0.0189124
2622	0.0190321
2634	0.0183139
2646	0.0183139
2658	0.0191518
2670	0.0214261
2682	0.0204685
2694	0.0195109
2706	0.0201094
2718	0.0221443
2730	0.0233413
2742	0.0226231
2754	0.0237004
2766	0.0241792
2778	0.0235807
2790	0.0264535
2802	0.0262141
2814	0.0293263
2826	0.0320793
2838	0.0356703
2850	0.0464432
2862	0.0906121
2874	0.192356
2886	0.219887
2898	0.198581
2910	0.243468
2922	0.276505
2934	0.240116
2946	0.291467
2958	0.609507
2970	1.14851
2982	0.573358
2994	0.146751
3006	0.0590116
3018	0.0420143
3030	0.0426128
3042	0.056857
3054	0.0756498
3066	0.0623632
3078	0.0615253
3090	0.0586525
3102	0.0466826
3114	0.031002
3126	0.0257353
3138	0.0237004
3150	0.0226231
3162	0.0227428
3174	0.0253762
3186	0.028249
3198	0.0257353
3210	0.024658
3222	0.0254959
3234	0.0238201
3246	0.0219049
3258	0.0211867
3270	0.0203488
3282	0.0204685
3294	0.0201094
3306	0.0190321
3318	0.0190321
3330	0.0190321
3342	0.0185533
3354	0.0173564
3366	0.0160397
3378	0.01592
3390	0.0155609
3402	0.0161594
3414	0.0161594
3426	0.0163988
3438	0.0153215
3450	0.0150821
3462	0.0141245
3474	0.0149624
3486	0.0154412
3498	0.0143639
3510	0.0146033
3522	0.0149624
3534	0.0179548
3546	0.0281293
3558	0.0471614
3570	0.159319
3582	0.725017
3594	0.208994
3606	0.0331566
3618	0.0213064
3630	0.0221443
3642	0.0360294
3654	0.0683481
3666	0.0262141
3678	0.0163988
3690	0.0158003
3702	0.0149624
3714	0.0155609
3726	0.0152018
3738	0.0156806
3750	0.0152018
3762	0.013526
3774	0.013526
3786	0.013526
3798	0.0142442
3810	0.0144836
3822	0.0154412
3834	0.017117
3846	0.0156806
3858	0.0162791
3870	0.0174761
3882	0.0167579
3894	0.0161594
3906	0.018673
3918	0.0166382
3930	0.0144836
3942	0.0152018
3954	0.0166382
3966	0.0141245
