Infrared Spectrum: 4-tert-Butyltoluene
Formula: C 11 H 16
CAS: 98-51-1
Origin: Sadtler Research Labs Under US-EPA Contract
1/CM	ABSORBANCE
450	0.00412065
462	0.00461513
474	0.00313169
486	0.00131861
498	0.00387341
510	0.00585132
522	0.0258777
534	0.081012
546	0.0982363
558	0.0333773
570	0.0107961
582	0.00576891
594	0.00370858
606	0.00354376
618	0.003791
630	0.00626339
642	0.0044503
654	0.00321411
666	0.00222515
678	0.00692269
690	0.00552167
702	0.0144223
714	0.0210977
726	0.0224987
738	0.00972473
750	0.00609856
762	0.00469754
774	0.0103016
786	0.0218394
798	0.057277
810	0.138701
822	0.122383
834	0.0391462
846	0.0136806
858	0.00692269
870	0.00428548
882	0.00469754
894	0.007582
906	0.00774682
918	0.00667545
930	0.00857095
942	0.00799406
954	0.00576891
966	0.0063458
978	0.00453271
990	0.00601615
1002	0.00716993
1014	0.0407944
1026	0.0463161
1038	0.0153288
1050	0.0136806
1062	0.0111258
1074	0.00931267
1086	0.0117026
1098	0.0266194
1110	0.0670842
1122	0.0342838
1134	0.0192846
1146	0.0112906
1158	0.00865336
1170	0.007582
1182	0.0124444
1194	0.0501071
1206	0.0351079
1218	0.0178836
1230	0.0262897
1242	0.0159881
1254	0.0291742
1266	0.0974122
1278	0.0612329
1290	0.0162354
1302	0.0117851
1314	0.00939508
1326	0.00865336
1338	0.0102192
1350	0.0294214
1362	0.0883467
1374	0.107549
1386	0.0542278
1398	0.0650239
1410	0.0398055
1422	0.0333773
1434	0.0311521
1446	0.0379924
1458	0.0666721
1470	0.0907367
1482	0.0991428
1494	0.0698038
1506	0.0990604
1518	0.191528
1530	0.0590901
1542	0.0178836
1554	0.0121971
1566	0.00972473
1578	0.0114554
1590	0.010384
1602	0.0107961
1614	0.0119499
1626	0.00840613
1638	0.0136806
1650	0.0108785
1662	0.00667545
1674	0.00304928
1686	0.00296687
1698	0.00321411
1710	0.00403824
1722	0.00387341
1734	0.00354376
1746	0.00519202
1758	0.00642821
1770	0.00807647
1782	0.0149992
1794	0.00832371
1806	0.00370858
1818	0.00362617
1830	0.00313169
1842	0.00403824
1854	0.00535684
1866	0.0063458
1878	0.00988956
1890	0.0145047
1902	0.013763
1914	0.00700511
1926	0.00461513
1938	0.00403824
1950	0.00370858
1962	0.00321411
1974	0.00280204
1986	0.00230756
1998	0.00296687
2010	0.00321411
2022	0.00263722
2034	0.00214274
2046	0.00173067
2058	0.00181309
2070	0.000659304
2082	0.00164826
2094	0.00197791
2106	0.0018955
2118	0.00156585
2130	0.00156585
2142	0.00247239
2154	0.00230756
2166	0.00197791
2178	0.00288445
2190	0.00238998
2202	0.00230756
2214	0.00230756
2226	0.00222515
2238	0.00222515
2250	0.00214274
2262	0.00222515
2274	0.00197791
2286	0.0025548
2298	0.00296687
2310	0.00412065
2322	0.00535684
2334	0.00296687
2346	0.000412065
2358	0.00609856
2370	0
2382	0.00107137
2394	0.00296687
2406	0.00238998
2418	0.00197791
2430	0.00156585
2442	0.00140102
2454	0.00181309
2466	0.00140102
2478	0.00156585
2490	0.0018955
2502	0.00131861
2514	0.00115378
2526	0.00115378
2538	0.0012362
2550	0.00148343
2562	0.00263722
2574	0.00214274
2586	0.00140102
2598	0.00280204
2610	0.00206033
2622	0.00206033
2634	0.0018955
2646	0.00247239
2658	0.00337893
2670	0.00197791
2682	0.000494478
2694	0.000988956
2706	0.00288445
2718	0.00576891
2730	0.00684028
2742	0.0107137
2754	0.00774682
2766	0.00510961
2778	0.00477995
2790	0.00700511
2802	0.00733476
2814	0.012362
2826	0.0159881
2838	0.0216746
2850	0.0360145
2862	0.0880995
2874	0.201335
2886	0.229108
2898	0.187407
2910	0.235536
2922	0.275836
2934	0.294709
2946	0.288116
2958	0.526866
2970	0.82413
2982	0.439426
2994	0.160211
3006	0.105571
3018	0.119829
3030	0.183287
3042	0.11167
3054	0.0791989
3066	0.0785396
3078	0.064859
3090	0.0546398
3102	0.0461513
3114	0.0269491
3126	0.0140102
3138	0.0121147
3150	0.00931267
3162	0.00799406
3174	0.00749958
3186	0.00601615
3198	0.00651063
3210	0.00700511
3222	0.00766441
3234	0.00684028
3246	0.00692269
3258	0.0063458
3270	0.00477995
3282	0.00337893
3294	0.00428548
3306	0.00387341
3318	0.00453271
3330	0.00230756
3342	0.00271963
3354	0.00263722
3366	0.00197791
3378	0.0018955
3390	0.00337893
3402	0.00288445
3414	0.00222515
3426	0.00197791
3438	0.000906543
3450	0.00082413
3462	0.00173067
3474	0.00387341
3486	0.00288445
3498	0.00238998
3510	0.000988956
3522	0.00313169
3534	0.00156585
3546	0.000494478
3558	0.00247239
3570	0.003791
3582	0.00296687
3594	0.00247239
3606	0.00362617
3618	0.0044503
3630	0.00395582
3642	0.00321411
3654	0.00337893
3666	0.0056865
3678	0.00560408
3690	0.00502719
3702	0.00395582
3714	0.00313169
3726	0.00510961
3738	0.00403824
3750	0.00271963
3762	0.00107137
3774	0.00296687
3786	0.00346135
3798	0.00403824
3810	0.00337893
3822	0.00329652
3834	0.00428548
3846	0.0044503
3858	0.00247239
3870	0.00412065
3882	0.00453271
3894	0.00412065
3906	0.00395582
3918	0.00370858
3930	0.003791
3942	0.00403824
3954	0.00238998
3966	0.00337893
