Infrared Spectrum: 3-Cyclohexene-1-methanol, .alpha.,.alpha.4-trimethyl-
Formula: C 10 H 18 O
CAS: 98-55-5
Origin: Sadtler Research Labs Under US-EPA Contract
1/CM	ABSORBANCE
450	0
462	0.0379299
474	0.0396232
486	0.0462271
498	0.0448725
510	0.0313261
522	0.0303101
534	0.035136
546	0.034882
558	0.0345433
570	0.033866
582	0.0278548
594	0.0314107
606	0.0293788
618	0.0304794
630	0.0360673
642	0.0367446
654	0.0326807
666	0.03285
678	0.0317494
690	0.0314954
702	0.032342
714	0.0331887
726	0.0335273
738	0.0325114
750	0.0342893
762	0.0370833
774	0.0537623
786	0.0665467
798	0.0879669
810	0.0635834
822	0.0543549
834	0.0805164
846	0.0603661
858	0.0426712
870	0.0426712
882	0.0503757
894	0.0708646
906	0.124542
918	0.181691
930	0.169245
942	0.137411
954	0.110657
966	0.0758598
978	0.069002
990	0.0660387
1002	0.0658694
1014	0.0727272
1026	0.0782305
1038	0.0724732
1050	0.0793311
1062	0.0809397
1074	0.0970261
1086	0.121156
1098	0.174918
1110	0.195915
1122	0.194137
1134	0.185078
1146	0.204127
1158	0.238247
1170	0.232067
1182	0.16933
1194	0.12886
1206	0.128183
1218	0.156715
1230	0.168568
1242	0.146809
1254	0.131231
1266	0.114467
1278	0.118954
1290	0.124627
1302	0.127167
1314	0.130553
1326	0.120732
1338	0.103545
1350	0.0951635
1362	0.15807
1374	0.269319
1386	0.275923
1398	0.133432
1410	0.068494
1422	0.0717959
1434	0.11633
1446	0.170431
1458	0.178135
1470	0.146555
1482	0.0853423
1494	0.0496984
1506	0.0422478
1518	0.0394539
1530	0.034628
1542	0.034628
1554	0.0329347
1566	0.032088
1578	0.03412
1590	0.034628
1602	0.0340353
1614	0.0330194
1626	0.03158
1638	0.0344587
1650	0.0354746
1662	0.0316647
1674	0.0329347
1686	0.0326807
1698	0.0310721
1710	0.0307334
1722	0.0303101
1734	0.0292941
1746	0.0294634
1758	0.0317494
1770	0.0309874
1782	0.0280241
1794	0.0272621
1806	0.0266695
1818	0.0270081
1830	0.0274315
1842	0.0274315
1854	0.0270928
1866	0.0272621
1878	0.0266695
1890	0.0264155
1902	0.0256535
1914	0.0256535
1926	0.0255688
1938	0.0262461
1950	0.0267541
1962	0.0260768
1974	0.0257382
1986	0.0257382
1998	0.0256535
2010	0.0258228
2022	0.0258228
2034	0.0253995
2046	0.0256535
2058	0.0259922
2070	0.0263308
2082	0.0262461
2094	0.0259922
2106	0.0256535
2118	0.0254842
2130	0.0257382
2142	0.0255688
2154	0.0257382
2166	0.0252302
2178	0.0252302
2190	0.0256535
2202	0.0257382
2214	0.0265848
2226	0.0265848
2238	0.0262461
2250	0.0263308
2262	0.0265848
2274	0.0265848
2286	0.0270081
2298	0.0274315
2310	0.0276008
2322	0.0277701
2334	0.0263308
2346	0.0270928
2358	0.0278548
2370	0.0275161
2382	0.0274315
2394	0.0275161
2406	0.0270928
2418	0.0269235
2430	0.0269235
2442	0.0268388
2454	0.0276008
2466	0.0283628
2478	0.0281088
2490	0.0286168
2502	0.0280241
2514	0.0281934
2526	0.0285321
2538	0.0288708
2550	0.0281088
2562	0.0286168
2574	0.0291248
2586	0.0302254
2598	0.0314107
2610	0.03158
2622	0.0329347
2634	0.03285
2646	0.0316647
2658	0.032342
2670	0.0347973
2682	0.0355593
2694	0.0347973
2706	0.034882
2718	0.0380146
2730	0.0479204
2742	0.0522383
2754	0.0439411
2766	0.0420785
2778	0.0430945
2790	0.0458884
2802	0.0530003
2814	0.0684093
2826	0.0999047
2838	0.224955
2850	0.340946
2862	0.359149
2874	0.430183
2886	0.473193
2898	0.540501
2910	0.635072
2922	0.746661
2934	0.828362
2946	0.649719
2958	0.559974
2970	0.76952
2982	0.786453
2994	0.381585
3006	0.193206
3018	0.171955
3030	0.112943
3042	0.0805164
3054	0.0771298
3066	0.0605355
3078	0.0506297
3090	0.0477511
3102	0.0431791
3114	0.0394539
3126	0.0364059
3138	0.034882
3150	0.0336967
3162	0.0326807
3174	0.0325114
3186	0.0324267
3198	0.0320034
3210	0.0313261
3222	0.0309027
3234	0.0294634
3246	0.0287014
3258	0.0276008
3270	0.0269235
3282	0.0270928
3294	0.0276008
3306	0.0271775
3318	0.0269235
3330	0.0275161
3342	0.0285321
3354	0.0277701
3366	0.0276855
3378	0.0280241
3390	0.0286168
3402	0.0280241
3414	0.0273468
3426	0.0280241
3438	0.0281934
3450	0.0284474
3462	0.0276008
3474	0.0267541
3486	0.0264155
3498	0.0261615
3510	0.0261615
3522	0.0260768
3534	0.0257382
3546	0.0264155
3558	0.0263308
3570	0.0265848
3582	0.0266695
3594	0.0276008
3606	0.0321727
3618	0.0375066
3630	0.0545243
3642	0.0952481
3654	0.069002
3666	0.0377606
3678	0.0291248
3690	0.0281088
3702	0.0269235
3714	0.0265001
3726	0.0261615
3738	0.0274315
3750	0.0253995
3762	0.0267541
3774	0.0261615
3786	0.0271775
3798	0.0287014
3810	0.0274315
3822	0.0292094
3834	0.0288708
3846	0.0287014
3858	0.0295481
3870	0.0300561
3882	0.0291248
3894	0.0302254
3906	0.0281934
3918	0.0288708
3930	0.0290401
3942	0.0283628
3954	0.0276008
3966	0.0276855
