Infrared Spectrum: Phenol, p-tert-butyl-
Formula: C 10 H 14 O
CAS: 98-54-4
Origin: Sadtler Research Labs Under US-EPA Contract
1/CM	ABSORBANCE
450	0.0316404
462	0.0234838
474	0.0391696
486	0.037377
498	0.0435616
510	0.0484915
522	0.0455336
534	0.0876611
546	0.148343
558	0.099403
570	0.0550347
582	0.0357636
594	0.0260832
606	0.0238424
618	0.0248283
630	0.0260832
642	0.031999
654	0.0447269
666	0.0430238
678	0.0230357
690	0.0200778
702	0.0196296
714	0.0236631
726	0.0235735
738	0.022229
750	0.0202571
762	0.01954
774	0.0220497
786	0.0314612
798	0.0644461
810	0.146371
822	0.201854
834	0.164566
846	0.0839861
858	0.0388111
870	0.0228564
882	0.0224979
894	0.0245594
906	0.0299374
918	0.0333435
930	0.0291307
942	0.0286826
954	0.0260832
966	0.0230357
978	0.0218705
990	0.0209741
1002	0.0224083
1014	0.041769
1026	0.0241113
1038	0.0109352
1050	0.0086944
1062	0.00537798
1074	0.00197193
1086	0.0112041
1098	0.0437409
1110	0.0814764
1122	0.0813868
1134	0.063012
1146	0.0470573
1158	0.132746
1170	0.822652
1182	0.615868
1194	0.231432
1206	0.181596
1218	0.104422
1230	0.0891848
1242	0.102451
1254	0.384077
1266	0.447269
1278	0.0861373
1290	0.0582614
1302	0.0412312
1314	0.0441891
1326	0.088647
1338	0.0776222
1350	0.0770844
1362	0.103078
1374	0.115358
1386	0.062026
1398	0.0648943
1410	0.0483122
1422	0.071079
1434	0.0664181
1446	0.042486
1458	0.0581718
1470	0.0908879
1482	0.0895434
1494	0.08793
1506	0.294265
1518	0.58136
1530	0.114372
1542	0.0363014
1554	0.0244698
1566	0.0286826
1578	0.0379148
1590	0.082552
1602	0.125755
1614	0.148074
1626	0.086944
1638	0.0305649
1650	0.0138931
1662	0.0145205
1674	0.00851514
1686	0.00466092
1698	0.00394385
1710	0.00968036
1722	0.00994926
1734	0.00358532
1746	0.0103078
1758	0.0115627
1770	0.00699137
1782	0.00887367
1794	0.012459
1806	0.0208845
1818	0.0181955
1830	0.00968036
1842	0.00941147
1854	0.0159547
1866	0.0181059
1878	0.018554
1890	0.0129072
1902	0.0109352
1914	0.00860477
1926	0.00699137
1938	0.00672248
1950	0.00546761
1962	0.00555725
1974	0.00600541
1986	0.00806697
1998	0.00672248
2010	0.00573651
2022	0.00672248
2034	0.00609504
2046	0.00519871
2058	0.00743954
2070	0.0084255
2082	0.00645358
2094	0.00475055
2106	0.00546761
2118	0.00466092
2130	0.00358532
2142	0.00313715
2154	0.00286826
2166	0.00286826
2178	0.00268899
2190	0.00295789
2202	0.00242009
2214	0.00197193
2226	0.00250972
2238	0.00250972
2250	0.00250972
2262	0.00313715
2274	0.00430238
2286	0.00555725
2298	0.00573651
2310	0.00609504
2322	0.00761881
2334	0.00770844
2346	0.0095011
2358	0.0092322
2370	0.0106663
2382	0.00761881
2394	0.00654321
2406	0.00609504
2418	0.00905293
2430	0.015148
2442	0.0115627
2454	0.00743954
2466	0.00663284
2478	0.00600541
2490	0.00609504
2502	0.00645358
2514	0.00806697
2526	0.00699137
2538	0.00564688
2550	0.00573651
2562	0.00636394
2574	0.00663284
2586	0.00672248
2598	0.00761881
2610	0.00690174
2622	0.00717064
2634	0.00708101
2646	0.00699137
2658	0.0078877
2670	0.00797734
2682	0.0078877
2694	0.00824624
2706	0.00851514
2718	0.0103078
2730	0.0113834
2742	0.0103974
2754	0.0113834
2766	0.0119212
2778	0.0113834
2790	0.0117419
2802	0.0121005
2814	0.0139827
2826	0.0164925
2838	0.0191815
2850	0.0276966
2862	0.0616675
2874	0.126293
2886	0.145385
2898	0.131223
2910	0.168689
2922	0.181238
2934	0.151569
2946	0.197461
2958	0.464747
2970	0.731136
2982	0.353781
2994	0.100479
3006	0.0613986
3018	0.0664181
3030	0.0839861
3042	0.0931287
3054	0.0599645
3066	0.0633705
3078	0.0585303
3090	0.0415897
3102	0.0307441
3114	0.0284137
3126	0.0234838
3138	0.0192711
3150	0.0153272
3162	0.0137138
3174	0.0155065
3186	0.0154169
3198	0.0139827
3210	0.0139827
3222	0.0132657
3234	0.0138035
3246	0.0131761
3258	0.0129072
3270	0.0125486
3282	0.0120108
3294	0.011473
3306	0.0111145
3318	0.0113834
3330	0.0101285
3342	0.0122797
3354	0.0135346
3366	0.0132657
3378	0.0129072
3390	0.0129968
3402	0.0125486
3414	0.0130864
3426	0.0133553
3438	0.0127279
3450	0.0121901
3462	0.0113834
3474	0.0127279
3486	0.0104871
3498	0.011473
3510	0.0112938
3522	0.00985963
3534	0.0104871
3546	0.00708101
3558	0.00887367
3570	0.00654321
3582	0.0125486
3594	0.00878403
3606	0.0117419
3618	0.0108456
3630	0.018554
3642	0.116792
3654	0.316136
3666	0.119391
3678	0.0136242
3690	0.00968036
3702	0.0110249
3714	0.00421275
3726	0.00528835
3738	0.00448165
3750	0.00484018
3762	0.00887367
3774	0.0115627
3786	0.012459
3798	0.0111145
3810	0.0128175
3822	0.00663284
3834	0.0120108
3846	0.0111145
3858	0.0115627
3870	0.0110249
3882	0.0086944
3894	0.0164028
3906	0.0112938
3918	0.0138035
3930	0.0154169
3942	0.0142516
3954	0.0179266
3966	0.015148
