Infrared Spectrum: Benzene, 1-chloro-4-(trifluoromethyl)-
Formula: C 7 H 4 Cl F 3
CAS: 98-56-6
Origin: Sadtler Research Labs Under US-EPA Contract
1/CM	ABSORBANCE
450	0.0561227
462	0.0192463
474	0.0213031
486	0.0217439
498	0.115184
510	0.136487
522	0.0113127
534	0.0117534
546	0.0116065
558	0.0136634
570	0.0210093
582	0.0242415
594	0.0293836
606	0.0242415
618	0.0148387
630	0.0016161
642	0.0101373
654	0.0073459
666	0.00617056
678	0.00602364
690	0.00705206
702	0.010725
714	0.0105781
726	0.0117534
738	0.0136634
750	0.00675823
762	0.00646439
774	0.0339381
786	0.0436346
798	0.0163079
810	0.0262983
822	0.0872693
834	0.197164
846	0.125762
858	0.0312935
870	0.00999042
882	0.00969659
894	0.00705206
906	0.00793357
918	0.00675823
930	0.00514213
942	0.00778665
954	0.00808049
966	0.00719898
978	0.00881508
990	0.00881508
1002	0.0186586
1014	0.209505
1026	0.113274
1038	0.0105781
1050	0.0168956
1062	0.215088
1074	0.390508
1086	0.12062
1098	0.453242
1110	0.164548
1122	0.1168
1134	0.225372
1146	0.609269
1158	0.827001
1170	0.66451
1182	0.471754
1194	0.138397
1206	0.048336
1218	0.0461323
1230	0.0489237
1242	0.0152795
1254	0.0146918
1266	0.0202747
1278	0.0559758
1290	0.0719898
1302	0.0600895
1314	0.3003
1326	1.46918
1338	0.439726
1350	0.101667
1362	0.0383456
1374	0.0368764
1386	0.0279144
1398	0.0552412
1410	0.060971
1422	0.0365826
1434	0.0208624
1446	0.0117534
1458	0.0188055
1470	0.00808049
1482	0.0105781
1494	0.0614117
1506	0.0625871
1518	0.023213
1530	0.016161
1542	0.0236538
1554	0.0155733
1566	0.0276206
1578	0.0359949
1590	0.0249761
1602	0.0618525
1614	0.213178
1626	0.0439285
1638	0.0151326
1650	0.0242415
1662	0.0151326
1674	0.017924
1686	0.0157202
1698	0.0163079
1710	0.00646439
1722	0.00749282
1734	0.0171894
1746	0.0127819
1758	0.00984351
1770	0.0138103
1782	0.0193932
1794	0.0108719
1806	0.00602364
1818	0.00367295
1830	0.00881508
1842	0.00675823
1854	0.00264452
1866	0.00440754
1878	0.00396679
1890	0.00778665
1902	0.0108719
1914	0.0138103
1926	0.00778665
1938	0.00381987
1950	0.00337911
1962	0.00249761
1974	0.00249761
1986	0.00205685
1998	0.00220377
2010	0.00176302
2022	0.00176302
2034	0.0016161
2046	0.0016161
2058	0.000881508
2070	0.00220377
2082	0.00190993
2094	0.0016161
2106	0.00440754
2118	0.00249761
2130	0.00117534
2142	0.00073459
2154	0.00073459
2166	0.000587672
2178	0.00132226
2190	0.00117534
2202	0.00176302
2214	0.00337911
2226	0.00293836
2238	0.00264452
2250	0.00220377
2262	0.00205685
2274	0.00367295
2286	0.00587672
2298	0.00455446
2310	0.00484829
2322	0.00499521
2334	0.00499521
2346	0.00602364
2358	0.0041137
2370	0.00631747
2382	0.00528905
2394	0.00308528
2406	0.00235069
2418	0.00176302
2430	0.00132226
2442	0.00073459
2454	0.00117534
2466	0.00117534
2478	0.00205685
2490	0.00205685
2502	0.00132226
2514	0.00176302
2526	0.0016161
2538	0.00205685
2550	0.00220377
2562	0.00381987
2574	0.00249761
2586	0.0016161
2598	0.00205685
2610	0.00102843
2622	0
2634	0.0016161
2646	0.00308528
2658	0.00190993
2670	0.00117534
2682	0.0016161
2694	0.00146918
2706	0.0016161
2718	0.00132226
2730	0.00102843
2742	0.00117534
2754	0.00146918
2766	0.00176302
2778	0.00176302
2790	0.00176302
2802	0.00146918
2814	0.00220377
2826	0.00235069
2838	0.00220377
2850	0.00235069
2862	0.00102843
2874	0.00220377
2886	0.00205685
2898	0.00279144
2910	0.00190993
2922	0.00337911
2934	0.00484829
2946	0.0041137
2958	0.00190993
2970	0.0016161
2982	0.00205685
2994	0.00102843
3006	0.00146918
3018	0.00205685
3030	0.00249761
3042	0.00352603
3054	0.0041137
3066	0.00470138
3078	0.00396679
3090	0.00396679
3102	0.00499521
3114	0.00617056
3126	0.00396679
3138	0.00220377
3150	0.000881508
3162	0.00190993
3174	0.0016161
3186	0.00220377
3198	0.00073459
3210	0.00146918
3222	0.00190993
3234	0.00249761
3246	0.000881508
3258	0.000881508
3270	0.00190993
3282	0.00176302
3294	0.00220377
3306	0.0016161
3318	0.00176302
3330	0.00117534
3342	0.00073459
3354	0.00146918
3366	0.00205685
3378	0.0041137
3390	0.00205685
3402	0.00205685
3414	0.0032322
3426	0.000881508
3438	0.000440754
3450	0.00528905
3462	0.000146918
3474	0.00205685
3486	0.00102843
3498	0.00308528
3510	0.00308528
3522	0.0016161
3534	0.00220377
3546	0.00176302
3558	0.00279144
3570	0.00235069
3582	0.00455446
3594	0.00176302
3606	0.00264452
3618	0.00264452
3630	0.00235069
3642	0.00205685
3654	0.00117534
3666	0.00146918
3678	0.00249761
3690	0.0041137
3702	0.00264452
3714	0.00146918
3726	0.00381987
3738	0.00528905
3750	0.00381987
3762	0.00279144
3774	0.00264452
3786	0.00264452
3798	0.00514213
3810	0.00235069
3822	0.00102843
3834	0.00426062
3846	0.00381987
3858	0.00249761
3870	0.00264452
3882	0.00514213
3894	0.00132226
3906	0.00352603
3918	0.00499521
3930	0.00249761
3942	0.00455446
3954	0.00279144
3966	0.00367295
