Infrared Spectrum: Benzene, (1-methylethyl)-
Formula: C 9 H 12
CAS: 98-82-8
Origin: Sadtler Research Labs Under US-EPA Contract
1/CM	ABSORBANCE
450	0.00568726
462	0.00343041
474	0.00460397
486	0.00857603
498	0.0184159
510	0.0354777
522	0.0579559
534	0.0693304
546	0.0448662
558	0.0242837
570	0.0134508
582	0.0163396
594	0.0113745
606	0.00108329
618	0.00306932
630	0
642	0.00704137
654	0.00893713
666	0.0267211
678	0.10219
690	0.276419
702	0.300522
714	0.122953
726	0.0388178
738	0.0708651
750	0.173236
762	0.213769
774	0.0841354
786	0.0157077
798	0.00559699
810	0.00288877
822	0.00370123
834	0.00144438
846	0.00261795
858	0.00523589
870	0.00794411
882	0.0169715
894	0.0204922
906	0.0166104
918	0.0133606
930	0.0117356
942	0.0115551
954	0.0113745
966	0.00640945
978	0.0045137
990	0.00713165
1002	0.00993014
1014	0.0301515
1026	0.0867533
1038	0.0683374
1050	0.0468522
1062	0.0414358
1074	0.0538033
1086	0.0476647
1098	0.027353
1110	0.0232004
1122	0.0129092
1134	0.0139022
1146	0.0140827
1158	0.0105621
1170	0.0124578
1182	0.0132703
1194	0.010201
1206	0.0139022
1218	0.0129995
1230	0.0120967
1242	0.0159785
1254	0.0352971
1266	0.0477549
1278	0.0295196
1290	0.034936
1302	0.0386373
1314	0.0396303
1326	0.0361999
1338	0.0204922
1350	0.0457689
1362	0.0747469
1374	0.0772745
1386	0.0761913
1398	0.050734
1410	0.0198603
1422	0.0221171
1434	0.0404428
1446	0.0955099
1458	0.130265
1470	0.108509
1482	0.0976765
1494	0.140376
1506	0.0940655
1518	0.0232004
1530	0.0145341
1542	0.0105621
1554	0.00704137
1566	0.00821493
1578	0.0152563
1590	0.0388178
1602	0.0816077
1614	0.0558796
1626	0.00848576
1638	0.00568726
1650	0.00649973
1662	0.012187
1674	0.0105621
1686	0.0105621
1698	0.0269017
1710	0.0351166
1722	0.0192284
1734	0.0152563
1746	0.0139925
1758	0.00848576
1770	0.00785384
1782	0.0109232
1794	0.0213047
1806	0.0165201
1818	0.00704137
1830	0.00388178
1842	0.00370123
1854	0.00956904
1866	0.0139925
1878	0.0156174
1890	0.00965932
1902	0.00424288
1914	0.0041526
1926	0.0107426
1938	0.0176034
1950	0.0194089
1962	0.011194
1974	0.00225685
1986	0.00162493
1998	0.00117356
2010	0.00108329
2022	0.000631918
2034	0.00162493
2046	0.00144438
2058	0.00144438
2070	0.000541644
2082	0.00261795
2094	0.00234712
2106	0.000993014
2118	0.000541644
2130	0.000993014
2142	0.000631918
2154	0.000631918
2166	0.00045137
2178	0.000361096
2190	0.00045137
2202	0.00117356
2214	0.000631918
2226	0.00180548
2238	0.00090274
2250	0.00189575
2262	0.00315959
2274	0.00297904
2286	0.00343041
2298	0.00288877
2310	0.00541644
2322	0.00577754
2334	0.00532617
2346	0.00361096
2358	0.00361096
2370	0.000541644
2382	0.00180548
2394	0.0024374
2406	0.00352069
2418	0.00288877
2430	0.00252767
2442	0.00234712
2454	0.00108329
2466	0.00252767
2478	0.00324986
2490	0.00306932
2502	0.00352069
2514	0.0020763
2526	0.0024374
2538	0.00252767
2550	0.00315959
2562	0.00306932
2574	0.00297904
2586	0.00559699
2598	0.00668028
2610	0.00541644
2622	0.00297904
2634	0.0024374
2646	0.00144438
2658	0.00297904
2670	0.0048748
2682	0.00442343
2694	0.00460397
2706	0.00442343
2718	0.00677055
2730	0.00884685
2742	0.00993014
2754	0.0104718
2766	0.0102912
2778	0.00929822
2790	0.0093885
2802	0.0139022
2814	0.0185062
2826	0.0203117
2838	0.0220269
2850	0.03295
2862	0.0620182
2874	0.155271
2886	0.225595
2898	0.222706
2910	0.211873
2922	0.196888
2934	0.256649
2946	0.284905
2958	0.459765
2970	0.90274
2982	0.520339
2994	0.127828
3006	0.0733928
3018	0.106975
3030	0.221713
3042	0.244733
3054	0.145161
3066	0.202123
3078	0.23706
3090	0.151931
3102	0.100114
3114	0.0544352
3126	0.0237421
3138	0.0114648
3150	0.010201
3162	0.0102912
3174	0.0120967
3186	0.0114648
3198	0.0112842
3210	0.00911767
3222	0.00830521
3234	0.00514562
3246	0.00252767
3258	0.00424288
3270	0.00442343
3282	0.00577754
3294	0.00216658
3306	0.00162493
3318	0.000631918
3330	0.00324986
3342	0.00252767
3354	0.00216658
3366	0.00234712
3378	0.00180548
3390	0.00324986
3402	0.00198603
3414	0.00279849
3426	0.0024374
3438	0.00225685
3450	0.00279849
3462	0.00180548
3474	0.00388178
3486	0.0041526
3498	0.00343041
3510	0.00324986
3522	0.00352069
3534	0.00370123
3546	0.00315959
3558	0.00270822
3570	0.00505534
3582	0.00297904
3594	0.00424288
3606	0.00370123
3618	0.0045137
3630	0.00595808
3642	0.00595808
3654	0.00595808
3666	0.0048748
3678	0.00505534
3690	0.00433315
3702	0.00388178
3714	0.0045137
3726	0.00424288
3738	0.00523589
3750	0.00397206
3762	0.00469425
3774	0.00469425
3786	0.00442343
3798	0.0041526
3810	0.00532617
3822	0.00568726
3834	0.00604836
3846	0.00559699
3858	0.00622891
3870	0.00613863
3882	0.00397206
3894	0.00315959
3906	0.0045137
3918	0.00505534
3930	0.0041526
3942	0.00442343
3954	0.00478452
3966	0.00613863
