Infrared Spectrum: Cyclohexanecarboxylic acid
Formula: C 7 H 12 O 2
CAS: 98-89-5
Origin: Sadtler Research Labs Under US-EPA Contract
1/CM	ABSORBANCE
450	0.0389313
462	0.0524317
474	0.0680251
486	0.0791184
498	0.0791184
510	0.0855023
522	0.0770253
534	0.103817
546	0.123073
558	0.16169
570	0.180005
582	0.160749
594	0.128306
606	0.106956
618	0.0990027
630	0.130922
642	0.153737
654	0.0714787
666	0.038722
678	0.0246983
690	0.0230239
702	0.0374661
714	0.0461524
726	0.063211
738	0.0596528
750	0.0307683
762	0.0259542
774	0.0177912
786	0.0128724
798	0.00753509
810	0.00544201
822	0.00439547
834	0.0079537
846	0.00732578
858	0.00711647
870	0.0149655
882	0.0294078
894	0.0358963
906	0.0266868
918	0.0171633
930	0.0115119
942	0.00648855
954	0.00324427
966	0.000418616
978	0.00648855
990	0.0229192
1002	0.0420709
1014	0.0606993
1026	0.0778626
1038	0.0753509
1050	0.0594435
1062	0.0817348
1074	0.134585
1086	0.230239
1098	0.437768
1110	0.609296
1122	0.474606
1134	0.346405
1146	0.343579
1158	0.299415
1170	0.228355
1182	0.15562
1194	0.0902117
1206	0.055362
1218	0.0419663
1230	0.0466757
1242	0.0532689
1254	0.057455
1266	0.0609086
1278	0.0537922
1290	0.0575597
1302	0.0721066
1314	0.0707461
1326	0.0779672
1338	0.0913629
1350	0.079537
1362	0.0620598
1374	0.0729438
1386	0.0859209
1398	0.060804
1410	0.0365242
1422	0.0295124
1434	0.0380941
1446	0.0935607
1458	0.135632
1470	0.0724206
1482	0.0221866
1494	0.0065932
1506	0.00366289
1518	0.00219773
1530	0.00219773
1542	0.000313962
1554	0.00293031
1566	0.002721
1578	0.000732578
1590	0.00146516
1602	0.00125585
1614	0.00209308
1626	0.00303497
1638	0.00324427
1650	0.00429081
1662	0.00565132
1674	0.00701182
1686	0.00973282
1698	0.0150702
1710	0.0298264
1722	0.0732578
1734	0.153004
1746	0.300148
1758	0.634727
1770	0.973492
1782	0.71981
1794	0.310194
1806	0.141178
1818	0.0609086
1830	0.0277333
1842	0.0132911
1854	0.00763974
1866	0.00596528
1878	0.00638389
1890	0.00565132
1902	0.00439547
1914	0.00429081
1926	0.00470943
1938	0.00565132
1950	0.0052327
1962	0.00429081
1974	0.00293031
1986	0.002721
1998	0.00219773
2010	0.00303497
2022	0.00376754
2034	0.00324427
2046	0.00345358
2058	0.00188377
2070	0.00209308
2082	0.00177912
2094	0.00156981
2106	0.00209308
2118	0.00146516
2130	0.0025117
2142	0.0025117
2154	0.00293031
2166	0.00376754
2178	0.00408151
2190	0.00460478
2202	0.0052327
2214	0.00502339
2226	0.00481408
2238	0.00418616
2250	0.00418616
2262	0.00334893
2274	0.0038722
2286	0.0052327
2298	0.00722113
2310	0.00900024
2322	0.0077444
2334	0.00648855
2346	0.0114073
2358	0.00837232
2370	0.00690716
2382	0.00743043
2394	0.00345358
2406	0.00282566
2418	0.0025117
2430	0.00240704
2442	0.00219773
2454	0.00188377
2466	0.00209308
2478	0.002721
2490	0.0025117
2502	0.00198843
2514	0.00125585
2526	0.00104654
2538	0.00167446
2550	0.00104654
2562	0.00156981
2574	0.00177912
2586	0.00282566
2598	0.00334893
2610	0.00429081
2622	0.00460478
2634	0.00606993
2646	0.00680251
2658	0.0104654
2670	0.0133957
2682	0.0103607
2694	0.00669786
2706	0.00565132
2718	0.00502339
2730	0.0038722
2742	0.00334893
2754	0.00188377
2766	0.00230239
2778	0.00439547
2790	0.0100468
2802	0.0145469
2814	0.0159074
2826	0.0199889
2838	0.0315009
2850	0.0998399
2862	0.280263
2874	0.304543
2886	0.162842
2898	0.118782
2910	0.185133
2922	0.361056
2934	0.780405
2946	1.04654
2958	0.610551
2970	0.191621
2982	0.0537922
2994	0.0207215
3006	0.0115119
3018	0.00837232
3030	0.00941886
3042	0.00920955
3054	0.00879094
3066	0.00732578
3078	0.00627924
3090	0.00638389
3102	0.00638389
3114	0.00732578
3126	0.00743043
3138	0.00627924
3150	0.00502339
3162	0.00565132
3174	0.00575597
3186	0.00565132
3198	0.00575597
3210	0.00502339
3222	0.00366289
3234	0.00408151
3246	0.00282566
3258	0.00324427
3270	0.00376754
3282	0.00167446
3294	0.0038722
3306	0.00293031
3318	0.00366289
3330	0.00345358
3342	0.00303497
3354	0.00303497
3366	0.00397685
3378	0.00460478
3390	0.00261635
3402	0.000837232
3414	0.00334893
3426	0.00502339
3438	0.00617459
3450	0.00596528
3462	0.00544201
3474	0.00596528
3486	0.00554666
3498	0.00847697
3510	0.00941886
3522	0.0121399
3534	0.0126631
3546	0.0155934
3558	0.0555713
3570	0.326416
3582	0.315113
3594	0.0419663
3606	0.00973282
3618	0.00722113
3630	0.00784905
3642	0.00606993
3654	0.00617459
3666	0.00565132
3678	0.00481408
3690	0.00586062
3702	0.00763974
3714	0.00586062
3726	0.00638389
3738	0.0104654
3750	0.0201982
3762	0.0141283
3774	0.00586062
3786	0.0079537
3798	0.00805836
3810	0.00900024
3822	0.00879094
3834	0.0106747
3846	0.0110933
3858	0.00889559
3870	0.0103607
3882	0.0102561
3894	0.00983748
3906	0.0077444
3918	0.00784905
3930	0.00900024
3942	0.00983748
3954	0.00460478
3966	0.00701182
