Infrared Spectrum: Benzenemethanamine, .alpha.-methyl-
Formula: C 8 H 11 N
CAS: 98-84-0
Origin: Sadtler Research Labs Under US-EPA Contract
1/CM	ABSORBANCE
450	0.00338145
462	0.0119541
474	0.025718
486	0.0282422
498	0.0402916
510	0.0402916
522	0.0639141
534	0.098824
546	0.0732012
558	0.0502931
570	0.0561511
582	0.0738203
594	0.079583
606	0.0445303
618	0.0283375
630	0.0287185
642	0.0262419
654	0.0284803
666	0.0554843
678	0.124351
690	0.293424
702	0.431777
714	0.25718
726	0.188075
738	0.280898
750	0.349908
762	0.349527
774	0.262324
786	0.240416
798	0.280898
810	0.276231
822	0.226081
834	0.151355
846	0.110016
858	0.069915
870	0.0435778
882	0.0376722
894	0.0439112
906	0.0490072
918	0.0400058
930	0.024575
942	0.0157166
954	0.0121923
966	0.0117636
978	0.0163357
990	0.0259562
1002	0.0383866
1014	0.0747252
1026	0.119589
1038	0.0756301
1050	0.0625806
1062	0.060866
1074	0.0622948
1086	0.0602945
1098	0.0824882
1110	0.0931088
1122	0.0514837
1134	0.023051
1146	0.0182408
1158	0.0201458
1170	0.0310045
1182	0.0385294
1194	0.0279088
1206	0.0259562
1218	0.0268611
1230	0.0379579
1242	0.0347194
1254	0.0249084
1266	0.0266706
1278	0.0433397
1290	0.0525315
1302	0.0697245
1314	0.0774875
1326	0.0811547
1338	0.0712961
1350	0.0674384
1362	0.120637
1374	0.162833
1386	0.107444
1398	0.0412441
1410	0.0256228
1422	0.0232415
1434	0.0433873
1446	0.103634
1458	0.125066
1470	0.0672003
1482	0.0668193
1494	0.107921
1506	0.0693435
1518	0.030052
1530	0.0285756
1542	0.0267182
1554	0.0255752
1566	0.0284803
1578	0.0412441
1590	0.0678194
1602	0.117446
1614	0.14826
1626	0.128828
1638	0.0743442
1650	0.0389581
1662	0.0262419
1674	0.0178598
1686	0.00881081
1698	0.00466735
1710	0.0045721
1722	0.00614375
1734	0.00995383
1746	0.0110016
1758	0.00800117
1770	0.005858
1782	0.00781066
1794	0.0175264
1806	0.0190028
1818	0.00881081
1830	0.00509598
1842	0.00485785
1854	0.00828692
1866	0.0137163
1878	0.0184789
1890	0.0153356
1902	0.00747728
1914	0.00533411
1926	0.0095252
1938	0.0180979
1950	0.0210031
1962	0.0133829
1974	0.00404821
1986	0.00223842
1998	0.00171454
2010	0.00104777
2022	0.00114302
2034	0.000762016
2046	0.000857268
2058	0.00071439
2070	0.000666764
2082	0.00152403
2094	0.00100015
2106	0.00119065
2118	0.000857268
2130	0.00119065
2142	0.000857268
2154	0.000904894
2166	0.000619138
2178	0.00071439
2190	0.00071439
2202	0.000523886
2214	0.000285756
2226	0.00071439
2238	0.0012859
2250	0.00152403
2262	0.00214317
2274	0.00271468
2286	0.00276231
2298	0.00166691
2310	0.00290519
2322	0.00371483
2334	0.00304806
2346	0.00309569
2358	0.00195267
2370	0.00223842
2382	0.00271468
2394	0.00276231
2406	0.00304806
2418	0.00361958
2430	0.00385771
2442	0.00414346
2454	0.00490548
2466	0.00528649
2478	0.00557224
2490	0.00538174
2502	0.00590562
2514	0.00533411
2526	0.00557224
2538	0.00595325
2550	0.00662001
2562	0.0082393
2574	0.00942995
2586	0.0110016
2598	0.011716
2610	0.0114779
2622	0.0120018
2634	0.0123351
2646	0.0117636
2658	0.0107159
2670	0.0103825
2682	0.0104777
2694	0.0110969
2706	0.0112874
2718	0.012859
2730	0.0143831
2742	0.0137163
2754	0.0134782
2766	0.0143831
2778	0.0159547
2790	0.019098
2802	0.0283375
2814	0.0421014
2826	0.0488643
2838	0.0563416
2850	0.0874413
2862	0.126114
2874	0.151927
2886	0.144021
2898	0.126447
2910	0.127542
2922	0.133686
2934	0.158833
2946	0.129876
2958	0.180741
2970	0.358433
2982	0.313808
2994	0.159928
3006	0.0721058
3018	0.10473
3030	0.208888
3042	0.22508
3054	0.145021
3066	0.205078
3078	0.241464
3090	0.147164
3102	0.0913943
3114	0.046483
3126	0.017193
3138	0.00514361
3150	0.00342907
3162	0.00395296
3174	0.00514361
3186	0.00309569
3198	0.00309569
3210	0.00180979
3222	0.00204792
3234	0.00228605
3246	0.00138115
3258	0.00071439
3270	0.000619138
3282	0.00047626
3294	0.00166691
3306	0.00190504
3318	0.0025718
3330	0.00923944
3342	0.0119065
3354	0.00581037
3366	0.00190504
3378	0.00204792
3390	0.00309569
3402	0.00252418
3414	0.00400058
3426	0.00285756
3438	0.00276231
3450	0.00285756
3462	0.0036672
3474	0.00385771
3486	0.00361958
3498	0.00261943
3510	0.00314332
3522	0.00276231
3534	0.00261943
3546	0.00295281
3558	0.00309569
3570	0.00333382
3582	0.00295281
3594	0.00352432
3606	0.00376245
3618	0.00514361
3630	0.00428634
3642	0.00652476
3654	0.00628663
3666	0.00547699
3678	0.0045721
3690	0.00423871
3702	0.00509598
3714	0.00600088
3726	0.00676289
3738	0.00461972
3750	0.00304806
3762	0.0047626
3774	0.00500073
3786	0.00523886
3798	0.00638188
3810	0.00652476
3822	0.00552462
3834	0.00600088
3846	0.0047626
3858	0.00647714
3870	0.00490548
3882	0.00723915
3894	0.00400058
3906	0.00376245
3918	0.00642951
3930	0.00576275
3942	0.00857268
3954	0.00357195
3966	0.0071439
