Infrared Spectrum: .alpha.-Methylstyrene
Formula: C 9 H 10
CAS: 98-83-9
Origin: Sadtler Research Labs Under US-EPA Contract
1/CM	ABSORBANCE
450	0.00826756
462	0.0149798
474	0.0308601
486	0.0525522
498	0.0584459
510	0.064667
522	0.103713
534	0.10052
546	0.072116
558	0.0507513
570	0.0175993
582	0.0124423
594	0.00482956
606	0.00613927
618	0.00384728
630	0.00556628
642	0.0118693
654	0.0244752
666	0.0735894
678	0.221587
690	0.52233
702	0.81857
714	0.381454
726	0.102731
738	0.0586915
750	0.118938
762	0.299678
774	0.526914
786	0.211355
798	0.0356078
810	0.012033
822	0.0112963
834	0.0140794
846	0.0180085
858	0.0376542
870	0.108133
882	0.313922
894	0.623095
906	0.380389
918	0.144559
930	0.0521429
942	0.0252938
954	0.0162077
966	0.00982284
978	0.00867684
990	0.0156347
1002	0.0338888
1014	0.0624569
1026	0.120739
1038	0.0730983
1050	0.0216102
1062	0.0327428
1074	0.0482138
1086	0.0420745
1098	0.0261124
1110	0.0414196
1122	0.0452669
1134	0.010887
1146	0.00106414
1158	0.00188271
1170	0.00180085
1182	0.00867684
1194	0.00785827
1206	0.00196457
1218	0.0070397
1230	0.0153073
1242	0.016044
1254	0.0153073
1266	0.0216102
1278	0.0288137
1290	0.074408
1302	0.143004
1314	0.106496
1326	0.0321698
1338	0.0175174
1350	0.0219377
1362	0.0552535
1374	0.159048
1386	0.180331
1398	0.0754722
1410	0.0627025
1422	0.0834123
1434	0.156265
1446	0.221996
1458	0.214875
1470	0.141858
1482	0.113126
1494	0.246635
1506	0.17853
1518	0.0364264
1530	0.0385546
1542	0.0336432
1554	0.0308601
1566	0.0535345
1578	0.0782553
1590	0.106414
1602	0.149635
1614	0.132281
1626	0.173455
1638	0.192282
1650	0.10535
1662	0.0453488
1674	0.0361808
1686	0.0284044
1698	0.0159621
1710	0.00908613
1722	0.012033
1734	0.0239841
1746	0.0281588
1758	0.0216921
1770	0.0202187
1782	0.0459218
1794	0.0953634
1806	0.0753084
1818	0.0285681
1830	0.014898
1842	0.00982284
1854	0.0125241
1866	0.0248845
1878	0.0344618
1890	0.0288955
1902	0.0111326
1914	0.00834941
1926	0.0173537
1938	0.0328247
1950	0.0428112
1962	0.026931
1974	0.00556628
1986	0.00392914
1998	0.00351985
2010	0.00163714
2022	0.00163714
2034	0.000409285
2046	0.001146
2058	0.00188271
2070	0.00139157
2082	0.00147343
2094	0.00221014
2106	0.000982284
2118	0.00204643
2130	0.002292
2142	0.00180085
2154	0.00237385
2166	0.001719
2178	0.00335614
2190	0.00139157
2202	0.000900427
2214	0.00106414
2226	0.00180085
2238	0.002292
2250	0.00204643
2262	0.00245571
2274	0.00302871
2286	0.00237385
2298	0.00319242
2310	0.00679413
2322	0.00810384
2334	0.00663042
2346	0.0076127
2358	0.00540256
2370	0.0064667
2382	0.00270128
2394	0.00130971
2406	0.00188271
2418	0.00401099
2430	0.00442028
2442	0.00294685
2454	0.00286499
2466	0.00188271
2478	0.00261942
2490	0.00261942
2502	0.00196457
2514	0.00237385
2526	0.00188271
2538	8.1857e-05
2550	0.00106414
2562	0.000491142
2574	0.00155528
2586	0.00245571
2598	0.00433842
2610	0.00450213
2622	0.00351985
2634	0.00401099
2646	0.00376542
2658	0.00302871
2670	0.002292
2682	0.00188271
2694	0.002292
2706	0.00376542
2718	0.00474771
2730	0.00834941
2742	0.00957727
2754	0.00834941
2766	0.00712156
2778	0.00744899
2790	0.0070397
2802	0.012606
2814	0.0153073
2826	0.0184997
2838	0.0255394
2850	0.0390458
2862	0.0676957
2874	0.091025
2886	0.0930714
2898	0.0975735
2910	0.116728
2922	0.17501
2934	0.226989
2946	0.228054
2958	0.236485
2970	0.282079
2982	0.429504
2994	0.279787
3006	0.173455
3018	0.205952
3030	0.296077
3042	0.354195
3054	0.332831
3066	0.510133
3078	0.561866
3090	0.569888
3102	0.436707
3114	0.144805
3126	0.0523885
3138	0.0271765
3150	0.0230018
3162	0.0163714
3174	0.010314
3186	0.0076127
3198	0.00597556
3210	0.00581185
3222	0.00433842
3234	0.00442028
3246	0.00311057
3258	0.00343799
3270	0.00351985
3282	0.00466585
3294	0.00278314
3306	0.00196457
3318	0.00286499
3330	0.00286499
3342	0.000982284
3354	0.00294685
3366	0.000572999
3378	0.00286499
3390	0.00253757
3402	0.00155528
3414	0.00188271
3426	0.00311057
3438	0.00319242
3450	0.00302871
3462	0.00294685
3474	0.00221014
3486	0.00204643
3498	0.00523885
3510	0.00335614
3522	0.00270128
3534	0.00237385
3546	0.00212828
3558	0.00163714
3570	0.000491142
3582	0.00212828
3594	0.00155528
3606	0.00433842
3618	0.00343799
3630	8.1857e-05
3642	0.00613927
3654	0.00548442
3666	0.00196457
3678	0.00368356
3690	0.00204643
3702	0.00417471
3714	0.00482956
3726	0.00302871
3738	0.00433842
3750	0.00376542
3762	0.00401099
3774	0.00433842
3786	0.00720342
3798	0.00679413
3810	0.00360171
3822	0.00474771
3834	0.00442028
3846	0.00409285
3858	0.00532071
3870	0.00278314
3882	0.00450213
3894	0.00663042
3906	0.00368356
3918	0.0058937
3930	0.00605742
3942	0.00597556
3954	0.00376542
3966	0.00581185
