Infrared Spectrum: Acetophenone
Formula: C 8 H 8 O
CAS: 98-86-2
Origin: Sadtler Research Labs Under US-EPA Contract
1/CM	ABSORBANCE
450	0.0835741
462	0.0256464
474	0.0188201
486	0.00338124
498	0.0301122
510	0.0148009
522	0.00931436
534	0.0167148
546	0.00676248
558	0.012568
570	0.0404473
582	0.162491
594	0.17978
606	0.0428716
618	0.0155665
630	0.0109731
642	0.0111007
654	0.00618831
666	0.0232859
678	0.08485
690	0.179014
702	0.108838
714	0.0319623
726	0.0143543
738	0.0535257
750	0.105393
762	0.119683
774	0.0565241
786	0.0084212
798	0.00140353
810	0.00599692
822	0.000127594
834	0.00363643
846	0.00586932
858	0.0021053
870	0.00497617
882	0.00548654
894	0.00778323
906	0.0128232
918	0.0140991
930	0.0183097
942	0.0699853
954	0.0937816
966	0.0350883
978	0.0151837
990	0.00937816
1002	0.0117386
1014	0.0289638
1026	0.0447855
1038	0.0202874
1050	0.0100161
1062	0.0146095
1074	0.0307502
1086	0.0290276
1098	0.0164596
1110	0.0127594
1122	0.00784703
1134	0.00542274
1146	0.00880399
1158	0.0127594
1170	0.0325365
1182	0.0581829
1194	0.029538
1206	0.0184373
1218	0.0283897
1230	0.0662851
1242	0.134484
1254	0.480455
1266	0.63427
1278	0.0932074
1290	0.0352797
1302	0.0431268
1314	0.0350246
1326	0.0179908
1338	0.0215634
1350	0.0926332
1362	0.205426
1374	0.13576
1386	0.0371937
1398	0.0197133
1410	0.021691
1422	0.0330468
1434	0.0474012
1446	0.0862535
1458	0.068518
1470	0.0196495
1482	0.0127594
1494	0.0111645
1506	0.00771944
1518	0.00880399
1530	0.0112921
1542	0.0100161
1554	0.0115473
1566	0.0142905
1578	0.029219
1590	0.0484857
1602	0.0540999
1614	0.0404473
1626	0.0151837
1638	0.00912297
1650	0.013525
1662	0.0319623
1674	0.0390438
1686	0.0948661
1698	0.435096
1710	0.588017
1722	0.227819
1734	0.042425
1746	0.0284535
1758	0.0293466
1770	0.0145457
1782	0.0063797
1794	0.00689008
1806	0.0136526
1818	0.0119938
1830	0.00567793
1842	0.00535895
1854	0.00650729
1866	0.00478477
1878	0.00752805
1890	0.0108455
1902	0.0120576
1914	0.00727286
1926	0.00478477
1938	0.00676248
1950	0.0102713
1962	0.0126956
1974	0.0109731
1986	0.00912297
1998	0.00829361
2010	0.00586932
2022	0.00446579
2034	0.00440199
2046	0.00344504
2058	0.00299846
2070	0.000956955
2082	0.00102075
2094	0.00242429
2106	0.00325365
2118	0.00236049
2130	0.00223289
2142	0.00236049
2154	0.0021053
2166	0.00229669
2178	0.00236049
2190	0.00261568
2202	0.00357263
2214	0.00370023
2226	0.00306226
2238	0.00331744
2250	0.00331744
2262	0.00274327
2274	0.00401921
2286	0.00299846
2298	0.00159493
2310	0.000574173
2322	0
2334	0.00357263
2346	0.00586932
2358	6.3797e-05
2370	0.0145457
2382	0.0111007
2394	0.00408301
2406	0.00338124
2418	0.00338124
2430	0.00376402
2442	0.00472098
2454	0.00382782
2466	0.00312605
2478	0.00370023
2490	0.00370023
2502	0.00408301
2514	0.00657109
2526	0.00618831
2538	0.00478477
2550	0.00548654
2562	0.00548654
2574	0.00452959
2586	0.00542274
2598	0.00714526
2610	0.00867639
2622	0.00905917
2634	0.00746425
2646	0.00701767
2658	0.00727286
2670	0.00293466
2682	0.00133974
2694	0.00344504
2706	0.00478477
2718	0.00542274
2730	0.00440199
2742	0.00472098
2754	0.00599692
2766	0.00478477
2778	0.00484857
2790	0.00669869
2802	0.00593312
2814	0.00618831
2826	0.00733666
2838	0.00771944
2850	0.0104627
2862	0.0119938
2874	0.0109731
2886	0.0105903
2898	0.0107817
2910	0.0101437
2922	0.0142267
2934	0.0197133
2946	0.0192029
2958	0.0181821
2970	0.0227755
2982	0.024817
2994	0.0209892
3006	0.0299846
3018	0.0447855
3030	0.0492513
3042	0.0598416
3054	0.0604796
3066	0.0825533
3078	0.103543
3090	0.077322
3102	0.0640522
3114	0.0315795
3126	0.0140353
3138	0.00982474
3150	0.00874019
3162	0.00995233
3174	0.00803842
3186	0.00586932
3198	0.00676248
3210	0.00523135
3222	0.00465718
3234	0.00593312
3246	0.00555034
3258	0.0041468
3270	0.00542274
3282	0.00370023
3294	0.00459338
3306	0.00567793
3318	0.00338124
3330	0.00350884
3342	0.00484857
3354	0.00446579
3366	0.00625211
3378	0.00899538
3390	0.0138439
3402	0.0150561
3414	0.00657109
3426	0.00344504
3438	0.00299846
3450	0.00267947
3462	0.00370023
3474	0.00280707
3486	0.00255188
3498	0.00350884
3510	0.0021691
3522	0.00159493
3534	0.00165872
3546	0.00389162
3558	0.00338124
3570	0.00357263
3582	0.00248808
3594	0.00165872
3606	0.00153113
3618	0.00318985
3630	0.00287086
3642	0.00465718
3654	0.00331744
3666	0.00452959
3678	0.00318985
3690	0.00267947
3702	0.00191391
3714	0.00503996
3726	0.00108455
3738	0.00389162
3750	0.00465718
3762	0.00325365
3774	0.00153113
3786	0.00229669
3798	0.00299846
3810	0.00357263
3822	0.00771944
3834	0.00242429
3846	0.00593312
3858	0.00523135
3870	0.00401921
3882	0.00350884
3894	0.00555034
3906	0.00287086
3918	0.00236049
3930	0.0021691
3942	0.00293466
3954	0.000956955
3966	6.3797e-05
