Infrared Spectrum: Benzenemethanol, .alpha.-methyl-
Formula: C 8 H 10 O
CAS: 98-85-1
Origin: Sadtler Research Labs Under US-EPA Contract
1/CM	ABSORBANCE
450	0
462	0.0258146
474	0.0547435
486	0.0445007
498	0.0462309
510	0.0577887
522	0.0970296
534	0.148659
546	0.0991751
558	0.0376492
570	0.0361958
582	0.0389641
594	0.0666473
606	0.101943
618	0.0581347
630	0.036265
642	0.0319049
654	0.034604
666	0.0505218
678	0.150873
690	0.434419
702	0.573319
714	0.317042
726	0.147136
738	0.146098
750	0.276002
762	0.39061
774	0.204786
786	0.0663705
798	0.0348808
810	0.0249149
822	0.020624
834	0.0223542
846	0.0252609
858	0.0301747
870	0.0478227
882	0.0991059
894	0.217452
906	0.263267
918	0.153919
930	0.0660244
942	0.0429782
954	0.0440163
966	0.0548819
978	0.0991751
990	0.204371
1002	0.294411
1014	0.284722
1026	0.285345
1038	0.244581
1050	0.270672
1062	0.381405
1074	0.513939
1086	0.526465
1098	0.42729
1110	0.275863
1122	0.149974
1134	0.0886554
1146	0.0813886
1158	0.102635
1170	0.154334
1182	0.172397
1194	0.163054
1206	0.15987
1218	0.13461
1230	0.147967
1242	0.235653
1254	0.330191
1266	0.264444
1278	0.217313
1290	0.214683
1302	0.206171
1314	0.190876
1326	0.189076
1338	0.183124
1350	0.240152
1362	0.340503
1374	0.354276
1386	0.313374
1398	0.179318
1410	0.0962683
1422	0.0824959
1434	0.106234
1446	0.203472
1458	0.237383
1470	0.129557
1482	0.0940537
1494	0.150251
1506	0.109349
1518	0.0442931
1530	0.0381336
1542	0.0385489
1554	0.027268
1566	0.0253301
1578	0.029275
1590	0.0460925
1602	0.0698309
1614	0.0546051
1626	0.0273372
1638	0.0245688
1650	0.0258146
1662	0.0289982
1674	0.034604
1686	0.0280292
1698	0.0274756
1710	0.0271295
1722	0.0270603
1734	0.0311436
1746	0.0351577
1758	0.0305207
1770	0.0253993
1782	0.0252609
1794	0.0434626
1806	0.0503834
1818	0.031282
1830	0.024292
1842	0.02097
1854	0.0249841
1866	0.0352961
1878	0.0444315
1890	0.0451928
1902	0.0310744
1914	0.0251225
1926	0.0289982
1938	0.0427013
1950	0.0501758
1962	0.0420785
1974	0.025953
1986	0.0213161
1998	0.0202087
2010	0.0183401
2022	0.0175096
2034	0.0164023
2046	0.0162639
2058	0.0163331
2070	0.0166791
2082	0.0171636
2094	0.017648
2106	0.017302
2118	0.0170252
2130	0.0172328
2142	0.0172328
2154	0.0174404
2166	0.0175788
2178	0.0177172
2190	0.0183401
2202	0.0180633
2214	0.0182709
2226	0.0186862
2238	0.018963
2250	0.0200703
2262	0.0208316
2274	0.0212469
2286	0.0213853
2298	0.02097
2310	0.0221466
2322	0.0232539
2334	0.0231155
2346	0.0237383
2358	0.0214545
2370	0.0224926
2382	0.0219389
2394	0.0214545
2406	0.0207624
2418	0.0207624
2430	0.0213161
2442	0.0220774
2454	0.0221466
2466	0.0215929
2478	0.0212469
2490	0.0211776
2502	0.0217313
2514	0.0209008
2526	0.0206932
2538	0.0205548
2550	0.0214545
2562	0.0229078
2574	0.0235999
2586	0.0257454
2598	0.0287213
2610	0.0299671
2622	0.0290674
2634	0.02796
2646	0.0257454
2658	0.0244304
2670	0.0251917
2682	0.0254685
2694	0.0258838
2706	0.0255378
2718	0.0261606
2730	0.0271295
2742	0.0283061
2754	0.0289982
2766	0.0290674
2778	0.0302439
2790	0.0338427
2802	0.0398638
2814	0.0467846
2826	0.0517676
2838	0.059242
2850	0.0743986
2862	0.12056
2874	0.235376
2886	0.316073
2898	0.282438
2910	0.217936
2922	0.188938
2934	0.217382
2946	0.19572
2958	0.165615
2970	0.303615
2982	0.624879
2994	0.501274
3006	0.150735
3018	0.151358
3030	0.297594
3042	0.367979
3054	0.260983
3066	0.313512
3078	0.390195
3090	0.261883
3102	0.17475
3114	0.104227
3126	0.0543283
3138	0.0303823
3150	0.0252609
3162	0.0262298
3174	0.0274756
3186	0.0266451
3198	0.0250533
3210	0.0237383
3222	0.0241536
3234	0.022631
3246	0.0207624
3258	0.0190322
3270	0.0190322
3282	0.0191706
3294	0.0190322
3306	0.0188246
3318	0.0183401
3330	0.0182017
3342	0.0195167
3354	0.0204164
3366	0.0211776
3378	0.0208316
3390	0.0194474
3402	0.0194474
3414	0.0205548
3426	0.0211776
3438	0.0204164
3450	0.0204856
3462	0.02097
3474	0.0207624
3486	0.0188246
3498	0.0179941
3510	0.0188938
3522	0.0193782
3534	0.0181325
3546	0.0181325
3558	0.0180633
3570	0.0191014
3582	0.020624
3594	0.0224926
3606	0.0250533
3618	0.0368879
3630	0.0725992
3642	0.163885
3654	0.214476
3666	0.123813
3678	0.0472691
3690	0.0296902
3702	0.0235307
3714	0.0191014
3726	0.0175788
3738	0.0183401
3750	0.0161947
3762	0.0175788
3774	0.0188246
3786	0.0173712
3798	0.0191706
3810	0.0163331
3822	0.0207624
3834	0.0202087
3846	0.0188246
3858	0.0198627
3870	0.0192398
3882	0.0190322
3894	0.0200011
3906	0.0164715
3918	0.0177865
3930	0.0190322
3942	0.0173712
3954	0.016956
3966	0.0160563
