Infrared Spectrum: Benzene, nitro-
Formula: C 6 H 5 N O 2
CAS: 98-95-3
Origin: Sadtler Research Labs Under US-EPA Contract
1/CM	ABSORBANCE
450	0.0121656
462	0.0157075
474	0.0120116
486	0.0123196
498	0.00893171
510	0.0143215
522	0.0183254
534	0.0110876
546	0.00970168
558	0.0140135
570	0.0109336
582	0.0104717
594	0.0275651
606	0.0140135
618	0.0115496
630	0.0164775
642	0.00985568
654	0.0212513
666	0.0729936
678	0.239924
690	0.493092
702	0.772747
714	0.402235
726	0.101483
738	0.0174014
750	0.0138595
762	0.0198654
774	0.0589801
786	0.115188
798	0.0749956
810	0.0364968
822	0.0144755
834	0.031261
846	0.293052
858	0.306912
870	0.0432726
882	0.0129356
894	0.0107796
906	0.0115496
918	0.0206353
930	0.0369588
942	0.0280271
954	0.0174014
966	0.00816173
978	0.0061598
990	0.00800774
1002	0.0093937
1014	0.0645239
1026	0.0788454
1038	0.0164775
1050	0.0241772
1062	0.0526663
1074	0.0546682
1086	0.0429646
1098	0.0432726
1110	0.0520503
1122	0.0381908
1134	0.0117036
1146	0.00985568
1158	0.0147835
1170	0.0589801
1182	0.0566702
1194	0.0130896
1206	0.0110876
1218	0.0143215
1230	0.0229453
1242	0.032031
1254	0.0264871
1266	0.0184794
1278	0.0212513
1290	0.0486624
1302	0.0671418
1314	0.06129
1326	0.0783835
1338	0.394689
1350	1.24366
1362	1.11231
1374	0.244236
1386	0.0950149
1398	0.0483544
1410	0.0392687
1422	0.0180174
1434	0.0127816
1446	0.0157075
1458	0.0266411
1470	0.0719157
1482	0.158769
1494	0.13721
1506	0.0830033
1518	0.17771
1530	0.74703
1542	1.53995
1554	1.41059
1566	0.406393
1578	0.152147
1590	0.142137
1602	0.199886
1614	0.200809
1626	0.126738
1638	0.0562082
1650	0.0224833
1662	0.0195574
1674	0.0166315
1686	0.0109336
1698	0.0093937
1710	0.0101637
1722	0.0141675
1734	0.0153995
1746	0.0167855
1758	0.0186334
1770	0.0192494
1782	0.0138595
1794	0.0224833
1806	0.0272571
1818	0.0127816
1830	0.0063138
1842	0.00400387
1854	0.0030799
1866	0.00415787
1878	0.00585181
1890	0.0118576
1902	0.0158615
1914	0.0189414
1926	0.0120116
1938	0.00754576
1950	0.0149375
1962	0.0190954
1974	0.0178634
1986	0.0092397
1998	0.00415787
2010	0.00354189
2022	0.00261792
2034	0.00215593
2046	0.00138596
2058	0.00061598
2070	0.000461985
2082	0
2094	0.00123196
2106	0.00184794
2118	0.00261792
2130	0.00261792
2142	0.00261792
2154	0.00246392
2166	0.00200194
2178	0.00200194
2190	0.00261792
2202	0.00354189
2214	0.00354189
2226	0.00384987
2238	0.00446586
2250	0.00369588
2262	0.00431186
2274	0.00477385
2286	0.00369588
2298	0.00338789
2310	0.00508183
2322	0.00862372
2334	0.00769975
2346	0.00800774
2358	0.00431186
2370	0.00954769
2382	0.00954769
2394	0.00769975
2406	0.00523583
2418	0.00461985
2430	0.00477385
2442	0.00585181
2454	0.00785375
2466	0.0093937
2478	0.0063138
2490	0.00354189
2502	0.00215593
2514	0.00246392
2526	0.00261792
2538	0.00215593
2550	0.00184794
2562	0.00261792
2574	0.00277191
2586	0.00461985
2598	0.00569782
2610	0.00569782
2622	0.0061598
2634	0.00585181
2646	0.00600581
2658	0.0061598
2670	0.00538982
2682	0.00569782
2694	0.0115496
2706	0.0132436
2718	0.00831573
2730	0.0061598
2742	0.00431186
2754	0.0032339
2766	0.00431186
2778	0.00508183
2790	0.00492784
2802	0.00554382
2814	0.00723777
2826	0.00785375
2838	0.00800774
2850	0.00800774
2862	0.0124736
2874	0.0271031
2886	0.0378828
2898	0.0332629
2910	0.0172474
2922	0.0127816
2934	0.0138595
2946	0.0163235
2958	0.0123196
2970	0.00985568
2982	0.00769975
2994	0.00708377
3006	0.00646779
3018	0.00785375
3030	0.0124736
3042	0.0207893
3054	0.0403467
3066	0.0742256
3078	0.130434
3090	0.150607
3102	0.0559002
3114	0.0107796
3126	0.00692977
3138	0.00477385
3150	0.00492784
3162	0.00400387
3174	0.00446586
3186	0.00431186
3198	0.00523583
3210	0.00600581
3222	0.00785375
3234	0.00600581
3246	0.00369588
3258	0.00446586
3270	0.00169395
3282	0.0030799
3294	0.00569782
3306	0.00461985
3318	0.0030799
3330	0.0030799
3342	0.00431186
3354	0.00461985
3366	0.00554382
3378	0.00646779
3390	0.00446586
3402	0.00354189
3414	0.00538982
3426	0.00508183
3438	0.00569782
3450	0.00492784
3462	0.00600581
3474	0.00446586
3486	0.00477385
3498	0.00538982
3510	0.00354189
3522	0.00523583
3534	0.00400387
3546	0.00461985
3558	0.00508183
3570	0.00554382
3582	0.00230992
3594	0.00754576
3606	0.00461985
3618	0.00538982
3630	0.00554382
3642	0.00646779
3654	0.00554382
3666	0.00708377
3678	0.00862372
3690	0.00662178
3702	0.00708377
3714	0.00862372
3726	0.00862372
3738	0.0100097
3750	0.00954769
3762	0.00831573
3774	0.00769975
3786	0.0104717
3798	0.00831573
3810	0.00739176
3822	0.00538982
3834	0.00692977
3846	0.00354189
3858	0.00769975
3870	0.0063138
3882	0.0061598
3894	0.0107796
3906	0.00862372
3918	0.0107796
3930	0.0120116
3942	0.00893171
3954	0.00708377
3966	0.0129356
