Infrared Spectrum: Benzoic acid, 3-methyl-
Formula: C 8 H 8 O 2
CAS: 99-04-7
Origin: Sadtler Research Labs Under US-EPA Contract
1/CM	ABSORBANCE
450	0.00832467
462	0
474	0.0160686
486	0.0451081
498	0.0596279
510	0.041817
522	0.0588535
534	0.0913778
546	0.167074
558	0.155458
570	0.287298
582	0.393002
594	0.192048
606	0.0561431
618	0.0526584
630	0.336278
642	0.350217
654	0.0422041
666	0.0255548
678	0.0307819
690	0.0354283
702	0.0224573
714	0.0756964
726	0.238512
738	0.382741
750	0.556398
762	0.207342
774	0.0549815
786	0.036009
798	0.0338795
810	0.0300075
822	0.0193597
834	0.0170365
846	0.0181981
858	0.024006
870	0.0358154
882	0.0456889
894	0.0356218
906	0.0236188
918	0.0296203
930	0.0286524
942	0.0216829
954	0.0232316
966	0.0220701
978	0.0294267
990	0.036009
1002	0.0319435
1014	0.0319435
1026	0.0354283
1038	0.0536264
1050	0.110157
1062	0.325243
1074	0.462116
1086	0.445854
1098	0.490575
1110	0.201922
1122	0.149457
1134	0.210246
1146	0.45747
1158	1.15384
1170	1.02606
1182	0.287298
1194	0.0733733
1206	0.0801492
1218	0.13939
1230	0.136873
1242	0.0795684
1254	0.0964113
1266	0.131065
1278	0.123902
1290	0.130291
1302	0.185853
1314	0.353702
1326	0.295042
1338	0.148489
1350	0.317693
1362	0.39668
1374	0.160298
1386	0.102994
1398	0.0805364
1410	0.0687269
1422	0.0849891
1434	0.112286
1446	0.128936
1458	0.0869251
1470	0.0631126
1482	0.0842147
1494	0.0873122
1506	0.0534328
1518	0.0342667
1530	0.0336859
1542	0.0363962
1554	0.0317499
1566	0.0332987
1578	0.0553687
1590	0.106672
1602	0.101445
1614	0.0780196
1626	0.04898
1638	0.0274908
1650	0.0243932
1662	0.024006
1674	0.0302011
1686	0.0352347
1698	0.0718245
1710	0.129904
1722	0.125064
1734	0.139777
1746	0.584663
1758	1.93597
1770	1.52458
1782	0.270842
1794	0.0824723
1806	0.0805364
1818	0.0929266
1830	0.0470441
1842	0.0185853
1854	0.0127774
1866	0.0187789
1878	0.0181981
1890	0.0174237
1902	0.0195533
1914	0.0131646
1926	0.0112286
1938	0.0191661
1950	0.0220701
1962	0.0156814
1974	0.0106478
1986	0.00793748
1998	0.00580791
2010	0.00580791
2022	0.00716309
2034	0.00909906
2046	0.00793748
2058	0.00561431
2070	0.00425913
2082	0.00445273
2094	0.00503352
2106	0.00522712
2118	0.00425913
2130	0.00542072
2142	0.00793748
2154	0.0063887
2166	0.00483993
2178	0.00522712
2190	0.00600151
2202	0.00464633
2214	0.00483993
2226	0.00464633
2238	0.00522712
2250	0.00503352
2262	0.00464633
2274	0.00542072
2286	0.00464633
2298	0.00445273
2310	0.00425913
2322	0.00561431
2334	0.00483993
2346	0.00387194
2358	0.00522712
2370	0.00522712
2382	0.00580791
2394	0.00774388
2406	0.00580791
2418	0.00696949
2430	0.00716309
2442	0.00755028
2454	0.00735669
2466	0.00735669
2478	0.00677589
2490	0.00735669
2502	0.0061951
2514	0.0061951
2526	0.00561431
2538	0.00542072
2550	0.00580791
2562	0.0065823
2574	0.0065823
2586	0.0065823
2598	0.00696949
2610	0.00735669
2622	0.00600151
2634	0.0061951
2646	0.0065823
2658	0.0063887
2670	0.00580791
2682	0.00522712
2694	0.00503352
2706	0.00542072
2718	0.00522712
2730	0.00600151
2742	0.00948625
2754	0.0102606
2766	0.00793748
2778	0.00677589
2790	0.00677589
2802	0.00774388
2814	0.00929266
2826	0.0127774
2838	0.0162621
2850	0.0220701
2862	0.0346539
2874	0.0551751
2886	0.0605959
2898	0.051884
2910	0.0592407
2922	0.088861
2934	0.12971
2946	0.10764
2958	0.0652422
2970	0.0449145
2982	0.0396874
2994	0.0513032
3006	0.064855
3018	0.0729861
3030	0.0896354
3042	0.0975729
3054	0.0952497
3066	0.0979601
3078	0.0801492
3090	0.05382
3102	0.0396874
3114	0.0321371
3126	0.0189725
3138	0.0118094
3150	0.00967985
3162	0.010067
3174	0.0102606
3186	0.0102606
3198	0.0102606
3210	0.010067
3222	0.00929266
3234	0.00832467
3246	0.00890546
3258	0.00929266
3270	0.00813107
3282	0.00774388
3294	0.0063887
3306	0.00871186
3318	0.00755028
3330	0.00871186
3342	0.00793748
3354	0.00929266
3366	0.0106478
3378	0.010067
3390	0.0102606
3402	0.0061951
3414	0.00522712
3426	0.00832467
3438	0.00987345
3450	0.010067
3462	0.00832467
3474	0.00948625
3486	0.0121966
3498	0.0207149
3510	0.0224573
3522	0.012003
3534	0.0108414
3546	0.0106478
3558	0.0176173
3570	0.104736
3582	0.665199
3594	0.503739
3606	0.0245868
3618	0.010067
3630	0.00967985
3642	0.00580791
3654	0.00483993
3666	0.00503352
3678	0.00542072
3690	0.0061951
3702	0.00425913
3714	0.00580791
3726	0.0065823
3738	0.00542072
3750	0.012003
3762	0.0174237
3774	0.00774388
3786	0.00445273
3798	0.00425913
3810	0.00600151
3822	0.00445273
3834	0.00445273
3846	0.00871186
3858	0.00716309
3870	0.00793748
3882	0.00967985
3894	0.00832467
3906	0.0114222
3918	0.0102606
3930	0.00871186
3942	0.00793748
3954	0.010067
3966	0.00871186
