Infrared Spectrum: Benzene, 1-methyl-3-nitro-
Formula: C 7 H 7 N O 2
CAS: 99-08-1
Origin: Sadtler Research Labs Under US-EPA Contract
1/CM	ABSORBANCE
450	0.00476765
462	0.00779473
474	0.0111245
486	0.0109732
498	0.00711364
510	0.0039352
522	0.00249734
534	0.0019676
546	0.00272437
558	0.00310276
570	0.00249734
582	0.00105948
594	0.00211896
606	0.00227031
618	0.00181625
630	0.00234599
642	0.0046163
654	0.0189949
666	0.0624335
678	0.0656876
690	0.0168003
702	0.0127137
714	0.0823366
726	0.226274
738	0.101029
750	0.0154381
762	0.00703796
774	0.014757
786	0.053655
798	0.25488
810	0.154381
822	0.00870286
834	0.00779473
846	0.00718931
858	0.00703796
870	0.0120326
882	0.0248221
894	0.0289086
906	0.0387466
918	0.0255788
930	0.0146813
942	0.00703796
954	0.00522171
966	0.00431359
978	0.00431359
990	0.00446494
1002	0.00597848
1014	0.00575145
1026	0.004919
1038	0.00771905
1050	0.0132435
1062	0.0193733
1074	0.0373088
1086	0.0505522
1098	0.0642498
1110	0.0337519
1122	0.00703796
1134	0.00507036
1146	0.00575145
1158	0.00718931
1170	0.0065839
1182	0.00514604
1194	0.00605416
1206	0.0085515
1218	0.00802176
1230	0.00650822
1242	0.00590281
1254	0.00734067
1266	0.0140002
1278	0.0289843
1290	0.0525198
1302	0.0514604
1314	0.0383682
1326	0.053655
1338	0.158468
1350	0.521112
1362	0.63773
1374	0.144013
1386	0.0467684
1398	0.0326925
1410	0.0235355
1422	0.0183138
1434	0.0236112
1446	0.0284546
1458	0.0280005
1470	0.0364006
1482	0.0687904
1494	0.0769635
1506	0.0657633
1518	0.0993639
1530	0.34766
1542	0.756165
1554	0.655287
1566	0.343044
1578	0.162706
1590	0.105721
1602	0.0695472
1614	0.0349628
1626	0.0188436
1638	0.0102164
1650	0.0121083
1662	0.00961098
1674	0.0101407
1686	0.00499468
1698	0.00484333
1710	0.00597848
1722	0.00832447
1734	0.0065839
1746	0.00499468
1758	0.00552442
1770	0.00779473
1782	0.00665958
1794	0.00787041
1806	0.00961098
1818	0.00590281
1830	0.00272437
1842	0.00348114
1854	0.00476765
1866	0.00529739
1878	0.00242166
1890	0.00612984
1902	0.00749202
1914	0.00317843
1926	0.00211896
1938	0.00370817
1950	0.00681093
1962	0.00537307
1974	0.00234599
1986	0.00158922
1998	0.00158922
2010	0.00143786
2022	0.000983801
2034	0.00075677
2046	0.000302708
2058	0.000302708
2070	0.000832447
2082	0.000908124
2094	0.000681093
2106	0.000832447
2118	0.00075677
2130	0.000832447
2142	0.000908124
2154	0.00105948
2166	0.00128651
2178	0.00181625
2190	0.00128651
2202	0.00121083
2214	0.000832447
2226	0.000227031
2238	0.000378385
2250	0.000908124
2262	0.00189193
2274	0.00136219
2286	0.00166489
2298	0.00227031
2310	0.00287573
2322	0.00416224
2334	0.00469197
2346	0.00438927
2358	0.00332979
2370	0.00211896
2382	0.0029514
2394	0.00234599
2406	0.00136219
2418	0.00136219
2430	0.00204328
2442	0.00325411
2454	0.00378385
2466	0.00227031
2478	0.00136219
2490	0.000832447
2502	0.000908124
2514	0.000378385
2526	0
2538	7.5677e-05
2550	7.5677e-05
2562	0.000908124
2574	0.00242166
2586	0.0029514
2598	0.00242166
2610	0.00249734
2622	0.00151354
2634	0.00151354
2646	0.00174057
2658	0.00211896
2670	0.0019676
2682	0.00257302
2694	0.00355682
2706	0.00378385
2718	0.00264869
2730	0.00204328
2742	0.00272437
2754	0.00431359
2766	0.00280005
2778	0.00227031
2790	0.00325411
2802	0.00423791
2814	0.00454062
2826	0.00567578
2838	0.00771905
2850	0.0107461
2862	0.0177084
2874	0.0310276
2886	0.0377628
2898	0.03186
2910	0.0323141
2922	0.0425305
2934	0.0644011
2946	0.0591037
2958	0.036325
2970	0.0240653
2982	0.0185409
2994	0.0211896
3006	0.0283032
3018	0.0305735
3030	0.0385953
3042	0.0471468
3054	0.0312546
3066	0.0327681
3078	0.0466927
3090	0.0317087
3102	0.0177084
3114	0.0085515
3126	0.00310276
3138	0.00166489
3150	0.00128651
3162	0.000908124
3174	0.00136219
3186	0.00143786
3198	0.00143786
3210	0.00158922
3222	0.00151354
3234	0.00211896
3246	0.00211896
3258	0.00204328
3270	0.00211896
3282	0.00113516
3294	0.00136219
3306	0.00211896
3318	0.00121083
3330	0.00136219
3342	0.0019676
3354	0.00189193
3366	0.00166489
3378	0.00189193
3390	0.00189193
3402	0.00181625
3414	0.00181625
3426	0.00151354
3438	0.00151354
3450	0.00174057
3462	0.00211896
3474	0.00189193
3486	0.00174057
3498	0.00128651
3510	0.00158922
3522	0.00189193
3534	0.00181625
3546	0.00219463
3558	0.00189193
3570	0.00128651
3582	0.0019676
3594	0.00113516
3606	0.00272437
3618	0.00166489
3630	0.00128651
3642	0.00211896
3654	0.00204328
3666	0.00234599
3678	0.00128651
3690	0.0019676
3702	0.00242166
3714	0.00211896
3726	0.00310276
3738	0.00219463
3750	0.00181625
3762	0.00264869
3774	0.00302708
3786	0.00234599
3798	0.00143786
3810	0.00166489
3822	0.00136219
3834	0.00166489
3846	0.00128651
3858	0.00105948
3870	0.000605416
3882	0.00189193
3894	0.00204328
3906	0.00151354
3918	0.0019676
3930	0.00174057
3942	0.00181625
3954	0.00257302
3966	0.00234599
