Infrared Spectrum: Benzoic acid, 3-hydroxy-
Formula: C 7 H 6 O 3
CAS: 99-06-9
Origin: Sadtler Research Labs Under US-EPA Contract
1/CM	ABSORBANCE
450	0.00496318
462	0.0203099
474	0.0152814
486	0.013061
498	0.0202446
510	0.0224649
522	0.0146936
534	0.0175017
546	0.0207017
558	0.0340239
570	0.0562929
582	0.0909699
594	0.0873128
606	0.0427748
618	0.0169793
630	0.10168
642	0.0858761
654	0.0123426
666	0.0107753
678	0.0159344
690	0.00966514
702	0.00378769
714	0.0164569
726	0.0799986
738	0.103966
750	0.142365
762	0.124602
774	0.0527011
786	0.0146936
798	0.0090774
810	0.00431013
822	0.000457135
834	0.00065305
846	0.00254689
858	0.00574684
870	0.0144977
882	0.0218772
894	0.0432319
906	0.0904474
918	0.0660887
930	0.0133875
942	0.00555092
954	0.00306933
966	0.00280811
978	0.00339586
990	0.00920801
1002	0.0152814
1014	0.00705294
1026	0.00483257
1038	0.0152814
1050	0.0579908
1062	0.106578
1074	0.120945
1086	0.16692
1098	0.120031
1110	0.0503502
1122	0.0495665
1134	0.091427
1146	0.205907
1158	0.361986
1170	0.414164
1182	0.325807
1194	0.239865
1206	0.153924
1218	0.0662193
1230	0.0476073
1242	0.065305
1254	0.105663
1266	0.109516
1278	0.0798027
1290	0.087574
1302	0.144455
1314	0.151704
1326	0.143606
1338	0.147981
1350	0.10279
1362	0.114806
1374	0.0861373
1386	0.0310852
1398	0.0191344
1410	0.0141712
1422	0.0225955
1434	0.0529624
1446	0.109386
1458	0.130741
1470	0.0760803
1482	0.0493706
1494	0.0399014
1506	0.0279505
1518	0.0163916
1530	0.010057
1542	0.0114937
1554	0.015412
1566	0.0194609
1578	0.0455829
1590	0.110888
1602	0.135312
1614	0.0847006
1626	0.0304321
1638	0.00626928
1650	0.00999167
1662	0.00835904
1674	0.0091427
1686	0.0147589
1698	0.0210282
1710	0.0372239
1722	0.0402932
1734	0.0485216
1746	0.189319
1758	0.61661
1770	0.577557
1782	0.0952147
1794	0.0286036
1806	0.0298444
1818	0.0319994
1830	0.0141712
1842	0.00731416
1854	0.00411422
1866	0.00463665
1878	0.00535501
1890	0.00313464
1902	0.00176323
1914	0.00228568
1926	0.00274281
1938	0.00561623
1950	0.00450605
1962	0.00156732
1974	0.00189384
1986	0.00182854
1998	0.00104488
2010	0.00104488
2022	0.00052244
2034	0.00052244
2046	0.00176323
2058	0.00228568
2070	0.00287342
2082	0.00280811
2094	0.00137141
2106	0.00137141
2118	0.00169793
2130	0.000979575
2142	0.00091427
2154	0.00150201
2166	0.00150201
2178	0.00117549
2190	0.00078366
2202	0.00039183
2214	0.0012408
2226	0.000979575
2238	0.00117549
2250	0.0012408
2262	0.000587745
2274	0.00052244
2286	0.00137141
2298	0.00208976
2310	0.00293873
2322	0.00274281
2334	0.00111019
2346	0.00293873
2358	0.00026122
2370	0.00241628
2382	0.00404891
2394	0.00202446
2406	0.00228568
2418	0.00287342
2430	0.00274281
2442	0.00280811
2454	0.00287342
2466	0.00241628
2478	0.00228568
2490	0.00346116
2502	0.00378769
2514	0.00339586
2526	0.00280811
2538	0.0013061
2550	0.00189384
2562	0.00182854
2574	0.000979575
2586	0.00104488
2598	0.00137141
2610	0.000979575
2622	0.00182854
2634	0.00202446
2646	0.00137141
2658	0.00169793
2670	0.00137141
2682	0.00176323
2694	0.00150201
2706	0.00065305
2718	0.00065305
2730	0.00065305
2742	0.00052244
2754	0.0012408
2766	0.0013061
2778	0.00111019
2790	0.0012408
2802	0.00078366
2814	0.00091427
2826	0.00104488
2838	0.00117549
2850	0.00202446
2862	0.00169793
2874	0.00143671
2886	0.00143671
2898	0.00163262
2910	0.0026122
2922	0.00241628
2934	0.00313464
2946	0.00313464
2958	0.00378769
2970	0.00287342
2982	0.00313464
2994	0.00437543
3006	0.00535501
3018	0.00966514
3030	0.0141712
3042	0.0148242
3054	0.0182201
3066	0.0203752
3078	0.0191344
3090	0.0158038
3102	0.0103835
3114	0.00639989
3126	0.00339586
3138	0.00235098
3150	0.00189384
3162	0.00156732
3174	0.00143671
3186	0.00163262
3198	0.0013061
3210	0.0013061
3222	0.00150201
3234	0.00208976
3246	0.00182854
3258	0.00169793
3270	0.00215506
3282	0.00137141
3294	0.00202446
3306	0.00202446
3318	0.00235098
3330	0.00248159
3342	0.00352647
3354	0.00339586
3366	0.00306933
3378	0.00280811
3390	0.00228568
3402	0.00287342
3414	0.00333055
3426	0.00313464
3438	0.00417952
3450	0.00319995
3462	0.00248159
3474	0.00208976
3486	0.00241628
3498	0.00411422
3510	0.0052244
3522	0.00306933
3534	0.00150201
3546	0.00313464
3558	0.00339586
3570	0.0455176
3582	0.220013
3594	0.15843
3606	0.00894679
3618	0.00607336
3630	0.017763
3642	0.0858108
3654	0.129957
3666	0.0526358
3678	0.00267751
3690	0.00026122
3702	0.00319995
3714	0.00287342
3726	0.00496318
3738	0.00287342
3750	0.00398361
3762	0.00424482
3774	0.00274281
3786	0.0026122
3798	0
3810	0.00450605
3822	0.00496318
3834	0.00359177
3846	0.0039183
3858	0.00241628
3870	0.00411422
3882	0.003853
3894	0.00111019
3906	0.00764068
3918	0.0026122
3930	0.0026122
3942	0.00483257
3954	0.00215506
3966	0.0052897
