Infrared Spectrum: Ethanone, 1-(3-aminophenyl)-
Formula: C 8 H 9 N O
CAS: 99-03-6
Origin: Sadtler Research Labs Under US-EPA Contract
1/CM	ABSORBANCE
450	0.0080396
462	0.0177104
474	0.0171861
486	0.0200116
498	0.0219924
510	0.0181765
522	0.0198077
534	0.0184678
546	0.015817
558	0.0185552
570	0.024381
582	0.0457034
594	0.0462569
606	0.0265656
618	0.0101078
630	0.0112147
642	0.0249636
654	0.0545586
666	0.0778036
678	0.0936206
690	0.0996794
702	0.0631225
714	0.0224002
726	0.0132828
738	0.0122633
750	0.0145936
762	0.0302942
774	0.0704631
786	0.0692396
798	0.0376929
810	0.0224002
822	0.013545
834	0.00961257
846	0.0110981
858	0.0210311
870	0.039965
882	0.0452082
894	0.0211768
906	0.00923389
918	0.000495193
930	0.00203903
942	0.00926302
954	0.015817
966	0.0147975
978	0.011069
990	0.0096417
1002	0.00993299
1014	0.00678706
1026	0.0111855
1038	0.013108
1050	0.0138071
1062	0.0195456
1074	0.0280221
1086	0.0254296
1098	0.0205359
1110	0.0159627
1122	0.011069
1134	0.00597144
1146	0.00329158
1158	0.00445674
1170	0.00780657
1182	0.011069
1194	0.0230702
1206	0.073609
1218	0.158491
1230	0.117827
1242	0.0226332
1254	0.0234488
1266	0.0573259
1278	0.126799
1290	0.229915
1302	0.232158
1314	0.14515
1326	0.0478589
1338	0.0264783
1350	0.0615204
1362	0.107865
1374	0.0491989
1386	0.0142441
1398	0.0129333
1410	0.0145645
1422	0.0210894
1434	0.0385085
1446	0.0900086
1458	0.0999707
1470	0.0392076
1482	0.0383629
1494	0.0388581
1506	0.0187882
1518	0.00836002
1530	0.00748615
1542	0.0117972
1554	0.0175648
1566	0.0268278
1578	0.0624817
1590	0.0994464
1602	0.112088
1614	0.148092
1626	0.186484
1638	0.107078
1650	0.0504223
1662	0.0381299
1674	0.03545
1686	0.0798135
1698	0.244451
1710	0.276201
1722	0.0738129
1734	0.0272356
1746	0.0244101
1758	0.0182056
1770	0.0106612
1782	0.00451499
1794	0.00349548
1806	0.0029129
1818	0.00195164
1830	0.00346635
1842	0.00372851
1854	0.00224293
1866	0.00329158
1878	0.00209729
1890	0.00154384
1902	0.00250509
1914	0.00288377
1926	0.00300029
1938	0.00250509
1950	0.00154384
1962	0.00157297
1974	0.00160209
1986	0.00087387
1998	0.00145645
2010	0.000699096
2022	0.000233032
2034	0.00113603
2046	0.00139819
2058	0.00116516
2070	0.00142732
2082	0.00107777
2094	0.000961257
2106	0.00125255
2118	0.000436935
2130	0.000349548
2142	0.000611709
2154	0.000699096
2166	0.00116516
2178	0.0011069
2190	0.000902999
2202	0.000728225
2214	0.000436935
2226	0.00029129
2238	0.00107777
2250	0.00133993
2262	0.00157297
2274	0.00253422
2286	0.00334983
2298	0.00466064
2310	0.00640838
2322	0.00588406
2334	0.0049228
2346	0.00611709
2358	0.00556364
2370	0.00285464
2382	0.00396154
2394	0.00136906
2406	0.00171861
2418	0.00136906
2430	0.00116516
2442	0.0013108
2454	0.00122342
2466	0.00125255
2478	0.00195164
2490	0.00166035
2502	0.00160209
2514	0.00183513
2526	0.00171861
2538	0.00142732
2550	0.00128168
2562	0.00148558
2574	0.00279638
2586	0.00323332
2598	0.00317506
2610	0.00314593
2622	0.00308767
2634	0.00343722
2646	0.00273813
2658	0.00212642
2670	0.00224293
2682	0.00209729
2694	0.00183513
2706	0.00148558
2718	0.00148558
2730	0.00136906
2742	0.00209729
2754	0.00230119
2766	0.00203903
2778	0.00209729
2790	0.00233032
2802	0.00212642
2814	0.00224293
2826	0.00279638
2838	0.00323332
2850	0.00378677
2862	0.00448587
2874	0.0049228
2886	0.00588406
2898	0.00658315
2910	0.00734051
2922	0.00905912
2934	0.0118846
2946	0.0106903
2958	0.010603
2970	0.014914
2982	0.0129624
2994	0.0120885
3006	0.0198951
3018	0.0325371
3030	0.0334401
3042	0.0347509
3054	0.0465773
3066	0.0422662
3078	0.0305563
3090	0.0257792
3102	0.0174483
3114	0.0100204
3126	0.00570928
3138	0.00393241
3150	0.00372851
3162	0.00326245
3174	0.0029129
3186	0.0031168
3198	0.00326245
3210	0.00410719
3222	0.00466064
3234	0.00460238
3246	0.00326245
3258	0.00253422
3270	0.00326245
3282	0.00230119
3294	0.00233032
3306	0.00294203
3318	0.00267987
3330	0.00297116
3342	0.00288377
3354	0.00355374
3366	0.00445674
3378	0.00669967
3390	0.012642
3402	0.0196329
3414	0.0249053
3426	0.0214098
3438	0.0105447
3450	0.00570928
3462	0.00605883
3474	0.00786483
3486	0.0125837
3498	0.0183513
3510	0.016254
3522	0.0094378
3534	0.0058258
3546	0.00334983
3558	0.00305854
3570	0.00250509
3582	0.00273813
3594	0.00238858
3606	0.00314593
3618	0.001806
3630	0.000320419
3642	0.00259248
3654	0.000961257
3666	0.00305854
3678	0
3690	0.00195164
3702	0.00250509
3714	0.00186426
3726	0.0029129
3738	0.00259248
3750	0.000932128
3762	0.00133993
3774	0.0029129
3786	0.00265074
3798	0.00276725
3810	0.00300029
3822	0.000174774
3834	0.00166035
3846	0.00174774
3858	0.00195164
3870	0.00416545
3882	0.00171861
3894	0.003612
3906	0.00215555
3918	0.00285464
3930	0.00407806
3942	0.00346635
3954	0.00434022
3966	0.00308767
