Infrared Spectrum: Benzoic acid, 3-methyl-, methyl ester
Formula: C 9 H 10 O 2
CAS: 99-36-5
Origin: Sadtler Research Labs Under US-EPA Contract
1/CM	ABSORBANCE
450	0
462	0.00253305
474	0.00962559
486	0.0122149
498	0.00866866
510	0.00821834
522	0.0101322
534	0.00771173
546	0.00743028
558	0.00641706
570	0.00422175
582	0.0050661
594	0.00838721
606	0.0067548
618	0.00641706
630	0.00591045
642	0.00624819
654	0.00849979
666	0.014748
678	0.0226849
690	0.014748
702	0.00951301
714	0.00849979
726	0.0180128
738	0.0712631
750	0.101322
762	0.0321416
774	0.0171122
786	0.028145
798	0.0149168
810	0.0144102
822	0.0095693
834	0.00861237
846	0.0107514
858	0.0136222
870	0.01942
882	0.0132844
894	0.0125527
906	0.011652
918	0.0115394
930	0.0106951
942	0.00810576
954	0.00872495
966	0.0120461
978	0.0188009
990	0.0217842
1002	0.0400222
1014	0.0300026
1026	0.0117083
1038	0.00973817
1050	0.0131719
1062	0.0175625
1074	0.0423864
1086	0.0884879
1098	0.109484
1110	0.143934
1122	0.0556145
1134	0.0244861
1146	0.0206021
1158	0.02291
1170	0.0269066
1182	0.0535318
1194	0.220206
1206	0.340217
1218	0.0888256
1230	0.0425552
1242	0.0361945
1254	0.0417672
1266	0.0969314
1278	0.405795
1290	0.500249
1302	0.194763
1314	0.0616938
1326	0.0295522
1338	0.0224597
1350	0.0198704
1362	0.0159864
1374	0.0154235
1386	0.0191949
1398	0.0160989
1410	0.0171684
1422	0.0239233
1434	0.0603992
1446	0.102786
1458	0.0370388
1470	0.0265689
1482	0.0266815
1494	0.0256119
1506	0.0144665
1518	0.010864
1530	0.0112017
1542	0.0113706
1554	0.0122712
1566	0.0133407
1578	0.0173936
1590	0.0309032
1602	0.0282013
1614	0.0242047
1626	0.0197578
1638	0.0123838
1650	0.0117083
1662	0.0118209
1674	0.0104699
1686	0.0121586
1698	0.021165
1710	0.024261
1722	0.0355753
1734	0.146635
1746	0.418854
1758	0.176863
1770	0.0292145
1782	0.0224597
1794	0.0249928
1806	0.0148606
1818	0.0101885
1830	0.00782431
1842	0.00641706
1854	0.00714883
1866	0.00748657
1878	0.0090064
1890	0.00804947
1902	0.00833092
1914	0.00607932
1926	0.005629
1938	0.00664222
1950	0.00861237
1962	0.00804947
1974	0.00804947
1986	0.0078806
1998	0.00630448
2010	0.00574158
2022	0.00540384
2034	0.00546013
2046	0.00579787
2058	0.00737399
2070	0.00810576
2082	0.00748657
2094	0.00686738
2106	0.00613561
2118	0.00579787
2130	0.00540384
2142	0.00579787
2154	0.00607932
2166	0.00551642
2178	0.00579787
2190	0.00534755
2202	0.00489723
2214	0.00478465
2226	0.00478465
2238	0.00444691
2250	0.00484094
2262	0.00467207
2274	0.00478465
2286	0.00399659
2298	0.00343369
2310	0.00315224
2322	0.00371514
2334	0.00439062
2346	0.00399659
2358	0.00388401
2370	0.00388401
2382	0.00439062
2394	0.00534755
2406	0.00540384
2418	0.0050661
2430	0.00495352
2442	0.00484094
2454	0.00529126
2466	0.00484094
2478	0.00523497
2490	0.00517868
2502	0.0050661
2514	0.00500981
2526	0.00467207
2538	0.00495352
2550	0.00472836
2562	0.00557271
2574	0.00585416
2586	0.00579787
2598	0.00574158
2610	0.00596674
2622	0.00546013
2634	0.00523497
2646	0.00529126
2658	0.00523497
2670	0.00495352
2682	0.00500981
2694	0.0050661
2706	0.00489723
2718	0.00529126
2730	0.00591045
2742	0.00647335
2754	0.00669851
2766	0.00602303
2778	0.005629
2790	0.00540384
2802	0.005629
2814	0.00624819
2826	0.0073177
2838	0.0107514
2850	0.0211087
2862	0.018632
2874	0.0215028
2886	0.023867
2898	0.0241484
2910	0.0287079
2922	0.0359693
2934	0.0459326
2946	0.0445254
2958	0.0819582
2970	0.0651838
2982	0.0242047
2994	0.0316913
3006	0.0378269
3018	0.0348435
3030	0.0408665
3042	0.0379395
3054	0.0328734
3066	0.032029
3078	0.0270755
3090	0.0200955
3102	0.0153109
3114	0.0121586
3126	0.0084435
3138	0.00658593
3150	0.00630448
3162	0.00602303
3174	0.00602303
3186	0.00607932
3198	0.00585416
3210	0.00540384
3222	0.00568529
3234	0.00495352
3246	0.00534755
3258	0.00489723
3270	0.00489723
3282	0.00495352
3294	0.00484094
3306	0.00568529
3318	0.00551642
3330	0.00534755
3342	0.00534755
3354	0.00512239
3366	0.00495352
3378	0.00517868
3390	0.00512239
3402	0.00512239
3414	0.00484094
3426	0.00500981
3438	0.00523497
3450	0.00489723
3462	0.00602303
3474	0.00692367
3486	0.0050661
3498	0.00309595
3510	0.00382772
3522	0.00546013
3534	0.00495352
3546	0.00512239
3558	0.00489723
3570	0.00500981
3582	0.00495352
3594	0.00478465
3606	0.0050661
3618	0.00557271
3630	0.0050661
3642	0.00523497
3654	0.00478465
3666	0.00512239
3678	0.00461578
3690	0.00478465
3702	0.00568529
3714	0.00613561
3726	0.00641706
3738	0.00484094
3750	0.00546013
3762	0.00557271
3774	0.00523497
3786	0.00517868
3798	0.00489723
3810	0.00568529
3822	0.00585416
3834	0.00523497
3846	0.00664222
3858	0.00585416
3870	0.00534755
3882	0.00529126
3894	0.00546013
3906	0.00613561
3918	0.00512239
3930	0.00613561
3942	0.00591045
3954	0.00574158
3966	0.00624819
