Infrared Spectrum: Benzenamine, 2-methyl-4-nitro-
Formula: C 7 H 8 N 2 O 2
CAS: 99-52-5
Origin: Sadtler Research Labs Under US-EPA Contract
1/CM	ABSORBANCE
450	0.00372719
462	0.00524567
474	0.0199474
486	0.0109745
498	0.00904188
510	0.0136664
522	0.015599
534	0.0318882
546	0.0265735
558	0.0186359
570	0.0178767
582	0.0154609
594	0.0302316
606	0.0317501
618	0.0328545
630	0.0394116
642	0.0615676
654	0.031336
666	0.0200164
678	0.0289892
690	0.0389284
702	0.0450023
714	0.0465899
726	0.0522497
738	0.0692981
750	0.0819291
762	0.0479013
774	0.0164272
786	0.0102843
798	0.0106294
810	0.0712307
822	0.127208
834	0.0432768
846	0.0181528
858	0.0101462
870	0.00897286
882	0.0130452
894	0.0289892
906	0.034373
918	0.0299555
930	0.0348561
942	0.00786851
954	0.00248479
966	0.00179457
978	0.0028299
990	0.00738535
1002	0.00980112
1014	0.00338208
1026	0.000552176
1038	0.00262284
1050	0.00773046
1062	0.0127691
1074	0.0113886
1086	0.021811
1098	0.078478
1110	0.0522497
1122	0.0075234
1134	0.00835166
1146	0.0383762
1158	0.0327855
1170	0.00379621
1182	0.00200164
1194	0.00200164
1206	0.00296795
1218	0.00207066
1230	0.00462447
1242	0.00779949
1254	0.0133212
1266	0.0361675
1278	0.0953884
1290	0.2364
1302	0.164272
1314	0.0450023
1326	0.0976661
1338	0.269324
1350	0.668271
1362	0.362918
1374	0.0392735
1386	0.0176006
1398	0.0150468
1410	0.0151848
1422	0.0208446
1434	0.0246409
1446	0.0262284
1458	0.0474871
1470	0.050041
1482	0.0650187
1494	0.165308
1506	0.187464
1518	0.188223
1530	0.371683
1542	0.303214
1554	0.15385
1566	0.0998748
1578	0.084621
1590	0.153712
1602	0.130383
1614	0.126172
1626	0.255588
1638	0.187947
1650	0.0641905
1662	0.0231914
1674	0.0105604
1686	0.0107674
1698	0.012424
1710	0.00648807
1722	0.0069022
1734	0.0105604
1746	0.00779949
1758	0.00662611
1770	0.006281
1782	0.00324403
1794	0.00614296
1806	0.00324403
1818	0.000897286
1830	0.00172555
1842	0.000828264
1854	0.000138044
1866	0.0022087
1878	0.00338208
1890	0.0056598
1902	0.00262284
1914	0.000966308
1926	0.00103533
1938	0.00131142
1950	0.000483154
1962	0.000414132
1974	0.000828264
1986	0.00110435
1998	0.00186359
2010	0.00144946
2022	0.00276088
2034	0.00358914
2046	0.00227773
2058	0.00151848
2070	0.00193262
2082	0.00144946
2094	0.00151848
2106	0.00144946
2118	0.000897286
2130	0.000897286
2142	0.000966308
2154	0.000897286
2166	0.00110435
2178	0.00110435
2190	0.00103533
2202	0.00151848
2214	0.00158751
2226	0.00117337
2238	0.00144946
2250	0.00179457
2262	0.0022087
2274	0.00338208
2286	0.00289892
2298	0.00276088
2310	0.00310599
2322	0.00248479
2334	0.00331306
2346	0.00379621
2358	0.00365817
2370	0.00310599
2382	0.00372719
2394	0.0028299
2406	0.00186359
2418	0.00151848
2430	0.00138044
2442	0.00289892
2454	0.00338208
2466	0.00186359
2478	0.0012424
2490	0.00069022
2502	0.00069022
2514	0.00131142
2526	0.00138044
2538	0.00186359
2550	0.00296795
2562	0.00310599
2574	0.00144946
2586	0.00158751
2598	0.00151848
2610	0.00186359
2622	0.00296795
2634	0.00455545
2646	0.00676416
2658	0.00538372
2670	0.00262284
2682	0.00200164
2694	0.00207066
2706	0.00207066
2718	0.00234675
2730	0.00248479
2742	0.00421034
2754	0.00462447
2766	0.00276088
2778	0.00289892
2790	0.0034511
2802	0.00400328
2814	0.00503861
2826	0.00593589
2838	0.00717829
2850	0.0101462
2862	0.015737
2874	0.0241577
2886	0.0239506
2898	0.0231914
2910	0.0267115
2922	0.0305077
2934	0.0363746
2946	0.0336137
2958	0.0205686
2970	0.0146327
2982	0.0178077
2994	0.0184289
3006	0.0106294
3018	0.00738535
3030	0.012424
3042	0.0191191
3054	0.0145636
3066	0.0129761
3078	0.0122859
3090	0.00607394
3102	0.00490056
3114	0.00448643
3126	0.00372719
3138	0.0028299
3150	0.0022087
3162	0.00186359
3174	0.00179457
3186	0.00248479
3198	0.00400328
3210	0.00572883
3222	0.00545274
3234	0.00352012
3246	0.00296795
3258	0.00200164
3270	0.00241577
3282	0.000621198
3294	0.00186359
3306	0.00158751
3318	0.00151848
3330	0.00172555
3342	0.00172555
3354	0.00165653
3366	0.00213968
3378	0.00303697
3390	0.00427936
3402	0.00952504
3414	0.0288512
3426	0.0530779
3438	0.0378241
3450	0.0180838
3462	0.00683318
3474	0.00476252
3486	0.00773046
3498	0.0160821
3510	0.0254691
3522	0.0242957
3534	0.0169104
3546	0.00980112
3558	0.00352012
3570	0.00276088
3582	0.00158751
3594	0.00151848
3606	0.00158751
3618	0.0022087
3630	0.00213968
3642	0.00131142
3654	0.000897286
3666	0.00144946
3678	0.00241577
3690	0.00158751
3702	0.00179457
3714	0.00158751
3726	0.00248479
3738	0.00172555
3750	0.00207066
3762	0.0022087
3774	0.00317501
3786	0.00200164
3798	0.00186359
3810	0.00234675
3822	0.00289892
3834	0.0028299
3846	0.00324403
3858	0.00255381
3870	0.00289892
3882	0.00414132
3894	0.00207066
3906	0.00331306
3918	0.00069022
3930	0.00213968
3942	0.00310599
3954	0.00276088
3966	0.00248479
