Infrared Spectrum: Benzenamine, 2-methyl-5-nitro-
Formula: C 7 H 8 N 2 O 2
CAS: 99-55-8
Origin: Sadtler Research Labs Under US-EPA Contract
1/CM	ABSORBANCE
450	0.0410001
462	0.0463527
474	0.0400367
486	0.0297599
498	0.0279401
510	0.0304022
522	0.0372534
534	0.0602692
546	0.0506347
558	0.0400367
570	0.0391803
582	0.04282
594	0.0520263
606	0.0554519
618	0.055666
630	0.0657287
642	0.0935617
654	0.0467808
666	0.0285823
678	0.0410001
690	0.0580211
702	0.0673345
714	0.0696896
726	0.0797522
738	0.104267
750	0.124178
762	0.0740786
774	0.0245145
786	0.0134883
798	0.0174492
810	0.111867
822	0.199755
834	0.0694754
846	0.029974
858	0.017235
870	0.0137024
882	0.019162
894	0.0436764
906	0.0524545
918	0.0441046
930	0.053525
942	0.0120967
954	0.00267625
966	0.00267625
978	0.0029974
990	0.0115614
1002	0.0174492
1014	0.0133813
1026	0.0132742
1038	0.0101697
1050	0.0126319
1062	0.0219452
1074	0.0211959
1086	0.0371464
1098	0.123
1110	0.0817862
1122	0.0117755
1134	0.0123108
1146	0.0596269
1158	0.0503135
1170	0.0068512
1182	0.0038538
1194	0.0038538
1206	0.00503135
1218	0.00331855
1230	0.00695825
1242	0.0112403
1254	0.0194831
1266	0.0564154
1278	0.143875
1290	0.358725
1302	0.251889
1314	0.0673345
1326	0.143768
1338	0.401223
1350	1.00648
1362	0.553877
1374	0.0598409
1386	0.0263343
1398	0.0226946
1410	0.0221594
1422	0.0308304
1434	0.0356477
1446	0.0386451
1458	0.0712953
1470	0.0737575
1482	0.0961309
1494	0.248677
1506	0.288393
1518	0.279293
1530	0.573146
1542	0.455605
1554	0.232191
1566	0.153296
1578	0.12557
1590	0.234332
1602	0.200612
1614	0.191512
1626	0.399832
1638	0.283897
1650	0.096345
1662	0.0368252
1674	0.0164857
1686	0.0177703
1698	0.0206606
1710	0.0111332
1722	0.0122037
1734	0.0175562
1746	0.0119896
1758	0.0110262
1770	0.0098486
1782	0.0044961
1794	0.0096345
1806	0.00545955
1818	0.0006423
1830	0.0034256
1842	0.00160575
1854	0
1866	0.00374675
1878	0.0051384
1890	0.0092063
1902	0.0044961
1914	0.0017128
1926	0.00181985
1938	0.0023551
1950	0.00117755
1962	0.0014987
1974	0.0017128
1986	0.0019269
1998	0.0027833
2010	0.00267625
2022	0.004282
2034	0.0051384
2046	0.00396085
2058	0.0027833
2070	0.0029974
2082	0.00267625
2094	0.00224805
2106	0.00267625
2118	0.00224805
2130	0.0019269
2142	0.00246215
2154	0.0019269
2166	0.0019269
2178	0.00224805
2190	0.002141
2202	0.0027833
2214	0.0029974
2226	0.0027833
2238	0.00310445
2250	0.0038538
2262	0.00417495
2274	0.0062089
2286	0.00653005
2298	0.00631595
2310	0.0072794
2322	0.0070653
2334	0.0070653
2346	0.00909925
2358	0.0077076
2370	0.0079217
2382	0.0079217
2394	0.00438905
2406	0.00353265
2418	0.0025692
2430	0.0027833
2442	0.00503135
2454	0.0059948
2466	0.00374675
2478	0.0027833
2490	0.00181985
2502	0.00203395
2514	0.00289035
2526	0.00289035
2538	0.0038538
2550	0.0057807
2562	0.0051384
2574	0.0034256
2586	0.00331855
2598	0.0027833
2610	0.00331855
2622	0.0051384
2634	0.00760055
2646	0.0114544
2658	0.0096345
2670	0.00438905
2682	0.0040679
2694	0.0040679
2706	0.004282
2718	0.0040679
2730	0.00417495
2742	0.006423
2754	0.00738645
2766	0.00438905
2778	0.0047102
2790	0.00567365
2802	0.0059948
2814	0.00781465
2826	0.0096345
2838	0.0117755
2850	0.0158434
2862	0.0241933
2874	0.0374675
2886	0.0371464
2898	0.0355406
2910	0.0410001
2922	0.047102
2934	0.055666
2946	0.0521334
2958	0.032115
2970	0.023444
2982	0.0285823
2994	0.0298669
3006	0.0164857
3018	0.0122037
3030	0.0199113
3042	0.0306163
3054	0.0231228
3066	0.0206606
3078	0.0195902
3090	0.0101697
3102	0.00802875
3114	0.00717235
3126	0.00631595
3138	0.00417495
3150	0.00353265
3162	0.0034256
3174	0.0034256
3186	0.0044961
3198	0.0066371
3210	0.00888515
3222	0.00845695
3234	0.0066371
3246	0.00503135
3258	0.0040679
3270	0.0038538
3282	0.00267625
3294	0.00353265
3306	0.0036397
3318	0.0032115
3330	0.0029974
3342	0.00289035
3354	0.00310445
3366	0.00396085
3378	0.0047102
3390	0.00781465
3402	0.0152011
3414	0.045068
3426	0.0825355
3438	0.0598409
3450	0.0292247
3462	0.0108121
3474	0.0092063
3486	0.0114544
3498	0.0261202
3510	0.0401437
3522	0.0366111
3534	0.0267625
3546	0.0160575
3558	0.0062089
3570	0.0049243
3582	0.0027833
3594	0.0034256
3606	0.0034256
3618	0.0036397
3630	0.00310445
3642	0.00310445
3654	0.00310445
3666	0.0029974
3678	0.00631595
3690	0.00417495
3702	0.0049243
3714	0.004282
3726	0.0029974
3738	0.0051384
3750	0.00246215
3762	0.00374675
3774	0.00460315
3786	0.0032115
3798	0.00481725
3810	0.0049243
3822	0.00610185
3834	0.00460315
3846	0.0040679
3858	0.00460315
3870	0.00567365
3882	0.006423
3894	0.00481725
3906	0.0055666
3918	0.00674415
3930	0.0038538
3942	0.0051384
3954	0.00460315
3966	0.00374675
