Infrared Spectrum: Benzene, 1,2-dimethyl-4-nitro-
Formula: C 8 H 9 N O 2
CAS: 99-51-4
Origin: Sadtler Research Labs Under US-EPA Contract
1/CM	ABSORBANCE
450	0.0186885
462	0.0119438
474	0.0056206
486	0.0238875
498	0.00983605
510	0.0130679
522	0.0251522
534	0.0290866
546	0.0101171
558	0.00955502
570	0.00548008
582	0.00533957
594	0.0123653
606	0.00393442
618	0.00702575
630	0.033021
642	0.0449648
654	0.00955502
666	0.00646369
678	0.00548008
690	0.00857141
702	0.0120843
714	0.0106791
726	0.0806556
738	0.251522
750	0.116065
762	0.0151756
774	0.0127869
786	0.0199531
798	0.0699765
810	0.377564
822	0.181545
834	0.0814987
846	0.0261358
858	0.0127869
870	0.0162997
882	0.0451053
894	0.0902106
906	0.0539578
918	0.0635128
930	0.055925
942	0.0178454
954	0.0168618
966	0.0129274
978	0.0143325
990	0.0276815
1002	0.0428571
1014	0.0323184
1026	0.0331615
1038	0.0227634
1050	0.0137705
1062	0.0123653
1074	0.0202342
1086	0.0819202
1098	0.144871
1110	0.0351288
1122	0.0199531
1134	0.0393442
1146	0.0445433
1158	0.0222014
1170	0.0195316
1182	0.018548
1194	0.0126463
1206	0.01363
1218	0.0186885
1230	0.0181264
1242	0.0179859
1254	0.0344262
1266	0.0590163
1278	0.0968148
1290	0.0812177
1302	0.0777048
1314	0.065199
1326	0.14192
1338	0.334285
1350	1.07986
1362	1.19972
1374	0.190257
1386	0.0945666
1398	0.0758781
1410	0.0460889
1422	0.0445433
1434	0.0553629
1446	0.0897891
1458	0.121967
1470	0.118173
1482	0.168337
1494	0.227213
1506	0.160328
1518	0.31911
1530	0.973628
1542	1.10782
1554	0.596065
1566	0.406088
1578	0.242669
1590	0.215409
1602	0.14993
1614	0.084028
1626	0.0410304
1638	0.0268384
1650	0.028384
1662	0.0261358
1674	0.0172833
1686	0.0146136
1698	0.014192
1710	0.01363
1722	0.0129274
1734	0.0120843
1746	0.00814987
1758	0.0103981
1770	0.0184075
1782	0.0230445
1794	0.0146136
1806	0.00674472
1818	0.00519905
1830	0.00533957
1842	0.00632317
1854	0.00604214
1866	0.00505854
1878	0.00604214
1890	0.0106791
1902	0.0160187
1914	0.01363
1926	0.0066042
1938	0.00533957
1950	0.00491802
1962	0.00435596
1974	0.0037939
1986	0.00393442
1998	0.00407494
2010	0.00435596
2022	0.00533957
2034	0.00421545
2046	0.00337236
2058	0.00435596
2070	0.00407494
2082	0.00365339
2094	0.00351287
2106	0.00252927
2118	0.00224824
2130	0.0028103
2142	0.00309133
2154	0.00168618
2166	0.00112412
2178	0.00154566
2190	0.00196721
2202	0.00210772
2214	0.00238875
2226	0.00238875
2238	0.00210772
2250	0.00266979
2262	0.00323184
2274	0.00618266
2286	0.00533957
2298	0.00421545
2310	0.00519905
2322	0.00646369
2334	0.00533957
2346	0.000421545
2358	0.00829038
2370	0
2382	0
2394	0.00266979
2406	0.00393442
2418	0.0037939
2430	0.00365339
2442	0.00463699
2454	0.00618266
2466	0.00477751
2478	0.00435596
2490	0.00505854
2502	0.00519905
2514	0.00477751
2526	0.00435596
2538	0.00491802
2550	0.00365339
2562	0.00393442
2574	0.00519905
2586	0.00632317
2598	0.00590163
2610	0.00323184
2622	0.00252927
2634	0.00182669
2646	0
2658	0.00140515
2670	0.00351287
2682	0.00477751
2694	0.00590163
2706	0.0066042
2718	0.00519905
2730	0.00604214
2742	0.00997656
2754	0.0111007
2766	0.0101171
2778	0.0101171
2790	0.00899296
2802	0.00969553
2814	0.0115222
2826	0.0146136
2838	0.0186885
2850	0.0300702
2862	0.0526931
2874	0.0834659
2886	0.100047
2898	0.0875408
2910	0.0803746
2922	0.0934425
2934	0.179859
2946	0.182529
2958	0.138969
2970	0.118454
2982	0.126604
2994	0.106932
3006	0.0545198
3018	0.0377985
3030	0.0526931
3042	0.0702575
3054	0.0599999
3066	0.0581732
3078	0.0487587
3090	0.0265573
3102	0.0210772
3114	0.0153161
3126	0.0111007
3138	0.0066042
3150	0.00463699
3162	0.00421545
3174	0.0037939
3186	0.00323184
3198	0.00337236
3210	0.00407494
3222	0.00421545
3234	0.0037939
3246	0.0028103
3258	0.00295081
3270	0.00365339
3282	0.00238875
3294	0.00309133
3306	0.00351287
3318	0.00266979
3330	0.00309133
3342	0.00323184
3354	0.00238875
3366	0.00365339
3378	0.00365339
3390	0.00435596
3402	0.00295081
3414	0.00463699
3426	0.00393442
3438	0.00449648
3450	0.00252927
3462	0.00295081
3474	0.00393442
3486	0.0028103
3498	0.0037939
3510	0.00463699
3522	0.00393442
3534	0.00238875
3546	0.00337236
3558	0.00182669
3570	0.00337236
3582	0.00351287
3594	0.00337236
3606	0.00252927
3618	0.00309133
3630	0.0037939
3642	0.00337236
3654	0.00309133
3666	0.00309133
3678	0.00140515
3690	0.00126463
3702	0.00210772
3714	0.00140515
3726	0.00210772
3738	0.00182669
3750	0.000421545
3762	0.00028103
3774	0.000983605
3786	0.000702575
3798	0.00238875
3810	0.00112412
3822	0.00295081
3834	0.00112412
3846	0.00323184
3858	0.00505854
3870	0.0028103
3882	0.00323184
3894	0.00702575
3906	0.00295081
3918	0.00519905
3930	0.00618266
3942	0.00674472
3954	0.00800935
3966	0.00730678
