Infrared Spectrum: Benzene, 1,2-dichloro-4-nitro-
Formula: C 6 H 3 Cl 2 N O 2
CAS: 99-54-7
Origin: Sadtler Research Labs Under US-EPA Contract
1/CM	ABSORBANCE
450	0.065204
462	0
474	0.0121102
486	0.0123488
498	0.0237431
510	0.0193882
522	0.0293508
534	0.029649
546	0.0262486
558	0.0622212
570	0.0519604
582	0.0410433
594	0.0175389
606	0.0122891
618	0.0172406
630	0.0177178
642	0.0212375
654	0.0158088
666	0.030007
678	0.0504093
690	0.0174792
702	0.00984324
714	0.0175389
726	0.0464124
738	0.103742
750	0.0504093
762	0.0570908
774	0.138998
786	0.0421171
798	0.0267855
810	0.0173599
822	0.055659
834	0.0544659
846	0.0227289
858	0.0203427
870	0.0452789
882	0.137447
894	0.131363
906	0.0597157
918	0.0193285
930	0.0134823
942	0.0129454
954	0.0128857
966	0.0135419
978	0.0104995
990	0.0127664
1002	0.0134823
1014	0.0192689
1026	0.0667551
1038	0.12486
1050	0.0420575
1062	0.0156299
1074	0.0152719
1086	0.017002
1098	0.0201041
1110	0.0308422
1122	0.046472
1134	0.059656
1146	0.149856
1158	0.115255
1170	0.0212375
1182	0.0150333
1194	0.0152123
1206	0.0151526
1218	0.0134226
1230	0.0163457
1242	0.0497531
1254	0.0434892
1266	0.042654
1278	0.0381798
1290	0.0174792
1302	0.018374
1314	0.0283963
1326	0.0587612
1338	0.293985
1350	0.59656
1362	0.190124
1374	0.105531
1386	0.0730189
1398	0.0427734
1410	0.0486793
1422	0.0468896
1434	0.0441454
1446	0.0838763
1458	0.180877
1470	0.0810725
1482	0.0427137
1494	0.0490372
1506	0.0785073
1518	0.121698
1530	0.191794
1542	0.482796
1554	0.450999
1566	0.155762
1578	0.102131
1590	0.10923
1602	0.0892454
1614	0.0293508
1626	0.0177178
1638	0.0201637
1650	0.0192689
1662	0.0168826
1674	0.00787459
1686	0.0059656
1698	0.00566732
1710	0.00739734
1722	0.00697975
1734	0.00680078
1746	0.00602526
1758	0.00620422
1770	0.00906771
1782	0.0119909
1794	0.0104398
1806	0.00757631
1818	0.00524973
1830	0.0050111
1842	0.00495145
1854	0.00417592
1866	0.00411626
1878	0.00471282
1890	0.00602526
1902	0.00966427
1914	0.00906771
1926	0.00477248
1938	0.00363902
1950	0.00322142
1962	0.00304246
1974	0.00286349
1986	0.0029828
1998	0.00292314
2010	0.0029828
2022	0.00262486
2034	0.00262486
2046	0.00232658
2058	0.00250555
2070	0.00196865
2082	0.00196865
2094	0.00161071
2106	0.00190899
2118	0.00220727
2130	0.00190899
2142	0.00161071
2154	0.00178968
2166	0.00143174
2178	0.00137209
2190	0.00137209
2202	0.00113346
2214	0.00131243
2226	0.00155106
2238	0.00196865
2250	0.00238624
2262	0.00262486
2274	0.00274418
2286	0.00346005
2298	0.00435489
2310	0.00483214
2322	0.00429523
2334	0.00322142
2346	0.00346005
2358	0.00214762
2370	0.00214762
2382	0.00405661
2394	0.00226693
2406	0.00262486
2418	0.00304246
2430	0.0035197
2442	0.00381798
2454	0.00357936
2466	0.00292314
2478	0.0035197
2490	0.00405661
2502	0.00381798
2514	0.0035197
2526	0.00381798
2538	0.0050111
2550	0.00674113
2562	0.00638319
2574	0.00304246
2586	0.00268452
2598	0.00268452
2610	0.00310211
2622	0.00310211
2634	0.0029828
2646	0.00310211
2658	0.00399695
2670	0.00489179
2682	0.00668147
2694	0.00781494
2706	0.00638319
2718	0.00489179
2730	0.00441454
2742	0.00381798
2754	0.00340039
2766	0.00310211
2778	0.00334074
2790	0.00405661
2802	0.00411626
2814	0.00441454
2826	0.0050111
2838	0.00626388
2850	0.00781494
2862	0.00811322
2874	0.00966427
2886	0.0115733
2898	0.00984324
2910	0.00817287
2922	0.00793425
2934	0.00721838
2946	0.00727803
2958	0.00620422
2970	0.00495145
2982	0.00441454
2994	0.00507076
3006	0.00417592
3018	0.0050111
3030	0.00513042
3042	0.00429523
3054	0.00435489
3066	0.00471282
3078	0.0099029
3090	0.0218938
3102	0.026189
3114	0.0151526
3126	0.0059656
3138	0.00483214
3150	0.00405661
3162	0.00495145
3174	0.00471282
3186	0.00477248
3198	0.00489179
3210	0.00399695
3222	0.00375833
3234	0.0039373
3246	0.0039373
3258	0.00316177
3270	0.00435489
3282	0.00357936
3294	0.00375833
3306	0.00334074
3318	0.00465317
3330	0.0039373
3342	0.00453386
3354	0.00375833
3366	0.0039373
3378	0.00453386
3390	0.00411626
3402	0.00411626
3414	0.00435489
3426	0.0044742
3438	0.00465317
3450	0.00387764
3462	0.00441454
3474	0.00316177
3486	0.00483214
3498	0.00495145
3510	0.00369867
3522	0.00483214
3534	0.00417592
3546	0.00441454
3558	0.00524973
3570	0.00465317
3582	0.00477248
3594	0.00435489
3606	0.00435489
3618	0.00435489
3630	0.00322142
3642	0.00548835
3654	0.00256521
3666	0.00411626
3678	0.0029828
3690	0.00232658
3702	0.0059656
3714	0.00316177
3726	0.00620422
3738	0.00513042
3750	0.00274418
3762	0.00656216
3774	0.00662182
3786	0.00775528
3798	0.00483214
3810	0.00632354
3822	0.00369867
3834	0.00453386
3846	0.0079939
3858	0.00638319
3870	0.00733769
3882	0.00811322
3894	0.00793425
3906	0.00620422
3918	0.00769562
3930	0.00739734
3942	0.00477248
3954	0.00602526
3966	0.00548835
