Infrared Spectrum: Benzene, 1,3-bis(1-methylethyl)-
Formula: C 12 H 18
CAS: 99-62-7
Origin: Sadtler Research Labs Under US-EPA Contract
1/CM	ABSORBANCE
450	0.0170599
462	0.0193863
474	0.0329567
486	0.0213249
498	0.0049112
510	0.00516968
522	0.00736679
534	0.00542816
546	0.00723755
558	0.00749604
570	0.00840073
582	0.00814225
594	0.00982239
606	0.00672058
618	0.00232636
630	0.00206787
642	0.00142166
654	0.00284332
666	0.00206787
678	0.00827149
690	0.0323105
702	0.167498
714	0.11593
726	0.0175769
738	0.00775452
750	0.0138289
762	0.0133119
774	0.0186108
786	0.0980947
798	0.118773
810	0.0312766
822	0.015509
834	0.00736679
846	0.00620362
858	0.00762528
870	0.0115025
882	0.0316643
894	0.0457517
906	0.0294672
918	0.0509213
930	0.0430376
942	0.0250729
954	0.0290795
966	0.0175769
978	0.0118903
990	0.00956391
1002	0.0113733
1014	0.0131827
1026	0.0129242
1038	0.0222296
1050	0.0595806
1062	0.0496289
1074	0.0432961
1086	0.060356
1098	0.0494997
1110	0.0376094
1122	0.0264946
1134	0.0242975
1146	0.0262361
1158	0.0324397
1170	0.04433
1182	0.057125
1194	0.0699199
1206	0.044847
1218	0.0241683
1230	0.0237805
1242	0.0336029
1254	0.0674643
1266	0.0787084
1278	0.0529892
1290	0.0422621
1302	0.0531185
1314	0.0975777
1326	0.0568665
1338	0.0425206
1350	0.057125
1362	0.0952514
1374	0.0989994
1386	0.0953806
1398	0.0540232
1410	0.0297257
1422	0.0492412
1434	0.0796131
1446	0.0865921
1458	0.11593
1470	0.147077
1482	0.125106
1494	0.122004
1506	0.0285625
1518	0.0113733
1530	0.00814225
1542	0.00930542
1554	0.00865921
1566	0.0121487
1578	0.0298549
1590	0.0736679
1602	0.131956
1614	0.096156
1626	0.0232636
1638	0.0112441
1650	0.0089177
1662	0.00930542
1674	0.0118903
1686	0.0217127
1698	0.0467856
1710	0.0674643
1722	0.0173184
1734	0.0153798
1746	0.0209372
1758	0.0118903
1770	0.0147336
1782	0.0131827
1794	0.0118903
1806	0.00684983
1818	0.00361878
1830	0.00310181
1842	0.00284332
1854	0.00904694
1866	0.0120195
1878	0.00374802
1890	0.00232636
1902	0.00180939
1914	0.00232636
1926	0.008013
1938	0.008013
1950	0.00206787
1962	0.000775452
1974	0.000516968
1986	0.000516968
1998	0.000387726
2010	0.000516968
2022	0.000258484
2034	0.000387726
2046	0.000387726
2058	0.000775452
2070	0.000387726
2082	0.000516968
2094	0
2106	0.000387726
2118	0.000516968
2130	0.000129242
2142	0.000129242
2154	0.000387726
2166	0.000516968
2178	0.00064621
2190	0.00129242
2202	0.00064621
2214	0.000516968
2226	0.000775452
2238	0.00116318
2250	0.00142166
2262	0.00168015
2274	0.0015509
2286	0.00142166
2298	0.00142166
2310	0.000904694
2322	0.00116318
2334	0.00116318
2346	0.00232636
2358	0.00297257
2370	0.00180939
2382	0.00219711
2394	0.00219711
2406	0.00168015
2418	0.00168015
2430	0.0015509
2442	0.00129242
2454	0.00116318
2466	0.00258484
2478	0.00271408
2490	0.00271408
2502	0.00206787
2514	0.00168015
2526	0.00168015
2538	0.00193863
2550	0.00180939
2562	0.00219711
2574	0.00361878
2586	0.00607437
2598	0.008013
2610	0.00697907
2622	0.00413574
2634	0.00374802
2646	0.00387726
2658	0.00413574
2670	0.00413574
2682	0.00361878
2694	0.00374802
2706	0.0049112
2718	0.00788376
2730	0.0129242
2742	0.0120195
2754	0.0112441
2766	0.0133119
2778	0.0116318
2790	0.0108563
2802	0.0157675
2814	0.0209372
2826	0.023522
2838	0.0261069
2850	0.0425206
2862	0.0807763
2874	0.201876
2886	0.289502
2898	0.262491
2910	0.270633
2922	0.243104
2934	0.330989
2946	0.377774
2958	0.514771
2970	1.29242
2982	0.532089
2994	0.166205
3006	0.0935712
3018	0.092925
3030	0.127562
3042	0.120195
3054	0.115542
3066	0.126399
3078	0.092925
3090	0.0494997
3102	0.0383849
3114	0.0279163
3126	0.0139581
3138	0.00969315
3150	0.00930542
3162	0.00969315
3174	0.0115025
3186	0.012795
3198	0.0120195
3210	0.0104686
3222	0.00852997
3234	0.00633286
3246	0.00465271
3258	0.00348953
3270	0.00271408
3282	0.00323105
3294	0.00284332
3306	0.00258484
3318	0.00180939
3330	0.00193863
3342	0.00180939
3354	0.0015509
3366	0.00180939
3378	0.00206787
3390	0.00297257
3402	0.00258484
3414	0.0015509
3426	0.00193863
3438	0.00271408
3450	0.00168015
3462	0.00116318
3474	0.00103394
3486	0.000516968
3498	0.0015509
3510	0.00180939
3522	0.00129242
3534	0.00129242
3546	0.00116318
3558	0.000775452
3570	0.00168015
3582	0.0015509
3594	0.00168015
3606	0.000904694
3618	0.00387726
3630	0.00723755
3642	0.00814225
3654	0.00620362
3666	0.00439423
3678	0.00193863
3690	0.00168015
3702	0.00258484
3714	0.00284332
3726	0.00284332
3738	0.00271408
3750	0.00284332
3762	0.00310181
3774	0.00142166
3786	0.00168015
3798	0.00180939
3810	0.00271408
3822	0.0015509
3834	0.00323105
3846	0.0024556
3858	0.00193863
3870	0.000775452
3882	0.00206787
3894	0.00206787
3906	0.00336029
3918	0.00206787
3930	0.00206787
3942	0.00193863
3954	0.00206787
3966	0.00271408
