Infrared Spectrum: Phenol, 4-(1-methylpropyl)-
Formula: C 10 H 14 O
CAS: 99-71-8
Origin: Sadtler Research Labs Under US-EPA Contract
1/CM	ABSORBANCE
450	0.0146994
462	0.0165961
474	0.0133822
486	0.011749
498	0.0139091
510	0.0219701
522	0.0312955
534	0.0516323
546	0.0547934
558	0.0328761
570	0.0187035
582	0.0129608
594	0.0118017
606	0.00447831
618	0.0101157
630	0.00742873
642	0.00821902
654	0.00194938
666	0.00553203
678	0.0140145
690	0.0251839
702	0.0107479
714	0.00869319
726	0.0145413
738	0.0122232
750	0.013751
762	0.0140145
774	0.0203895
786	0.0266064
798	0.0458895
810	0.0638554
822	0.112168
834	0.119861
846	0.0381447
858	0.0166488
870	0.00848245
882	0.00642769
894	0.00663844
906	0.00669112
918	0.00806096
930	0.00874588
942	0.00553203
954	0.0103265
966	0.00927274
978	0.00900931
990	0.0106426
1002	0.0173337
1014	0.0233926
1026	0.0131715
1038	0.00569009
1050	0.0102738
1062	0.0193358
1074	0.0179659
1086	0.0245517
1098	0.043624
1110	0.0346674
1122	0.0373017
1134	0.0388823
1146	0.039093
1158	0.0932542
1170	0.498146
1182	0.360056
1194	0.126604
1206	0.071811
1218	0.0513162
1230	0.0538978
1242	0.106268
1254	0.251628
1266	0.156846
1278	0.0398306
1290	0.0281343
1302	0.0291354
1314	0.0448885
1326	0.0554257
1338	0.051
1350	0.0483131
1362	0.0296622
1374	0.0346674
1386	0.0415166
1398	0.0192304
1410	0.0146467
1422	0.0258161
1434	0.0524753
1446	0.0507893
1458	0.0651199
1470	0.0573224
1482	0.0373544
1494	0.0521591
1506	0.229184
1518	0.30953
1530	0.0537924
1542	0.0204422
1554	0.0152263
1566	0.0136457
1578	0.0219701
1590	0.0528967
1602	0.0879856
1614	0.0992077
1626	0.0479969
1638	0.016438
1650	0.0106953
1662	0.00853513
1674	0.00774484
1686	0.00779753
1698	0.00679649
1710	0.00569009
1722	0.00505786
1734	0.00605889
1746	0.00690187
1758	0.00468905
1770	0.00216013
1782	0.00258161
1794	0.0018967
1806	0.00231818
1818	0.00210744
1830	0.00310847
1842	0.00458368
1854	0.00642769
1866	0.00911468
1878	0.00911468
1890	0.00584815
1902	0.00421488
1914	0.00310847
1926	0.00247624
1938	0.00210744
1950	0.0022655
1962	0.00173864
1974	0.00216013
1986	0.00231818
1998	0.00237087
2010	0.00242356
2022	0.00221281
2034	0.00242356
2046	0.00258161
2058	0.00342459
2070	0.00384608
2082	0.00384608
2094	0.00363533
2106	0.00210744
2118	0.00168595
2130	0.000895662
2142	0.000737604
2154	0.000684918
2166	0.000684918
2178	0.000579546
2190	0.000579546
2202	0.00115909
2214	0.00126446
2226	0.00110641
2238	0.00142252
2250	0.00152789
2262	0.00205475
2274	0.00321385
2286	0.00216013
2298	0.00358265
2310	0.00379339
2322	0.0033719
2334	0.00310847
2346	0.00516323
2358	0.00358265
2370	0.00310847
2382	0.00358265
2394	0.0026343
2406	0.00384608
2418	0.00663844
2430	0.00911468
2442	0.00611158
2454	0.00400414
2466	0.00289773
2478	0.00331922
2490	0.00295042
2502	0.00363533
2514	0.00295042
2526	0.00194938
2538	0.00179132
2550	0.00242356
2562	0.00205475
2574	0.00326653
2586	0.0033719
2598	0.00368802
2610	0.00416219
2622	0.00326653
2634	0.00331922
2646	0.00363533
2658	0.00331922
2670	0.0033719
2682	0.00421488
2694	0.00363533
2706	0.00358265
2718	0.00384608
2730	0.00442562
2742	0.00569009
2754	0.00574277
2766	0.00590083
2778	0.00653306
2790	0.00774484
2802	0.00837707
2814	0.0103265
2826	0.0121705
2838	0.0143306
2850	0.0216013
2862	0.0511054
2874	0.101157
2886	0.138564
2898	0.103212
2910	0.0946767
2922	0.151314
2934	0.188721
2946	0.157478
2958	0.187668
2970	0.357158
2982	0.217962
2994	0.0542139
3006	0.0501044
3018	0.0733916
3030	0.0678596
3042	0.0638554
3054	0.0438348
3066	0.0368275
3078	0.0306106
3090	0.0199153
3102	0.0148575
3114	0.0129608
3126	0.0105372
3138	0.0079029
3150	0.00679649
3162	0.00537397
3174	0.00505786
3186	0.00516323
3198	0.00447831
3210	0.00400414
3222	0.00279236
3234	0.00247624
3246	0.00205475
3258	0.00216013
3270	0.00158058
3282	0.000948348
3294	0.000737604
3306	0.00168595
3318	0.00142252
3330	0.00221281
3342	0.00289773
3354	0.00432025
3366	0.00516323
3378	0.00474174
3390	0.00384608
3402	0.00400414
3414	0.00395145
3426	0.00395145
3438	0.00279236
3450	0.00258161
3462	0.000948348
3474	0.00200207
3486	0.00194938
3498	0.00152789
3510	0.00194938
3522	0.00231818
3534	0.00252893
3546	0.00316116
3558	0.0026343
3570	0.00395145
3582	0.00379339
3594	0.00421488
3606	0.00521591
3618	0.00690187
3630	0.0153316
3642	0.0752883
3654	0.18772
3666	0.0674908
3678	0.00953617
3690	0.00511054
3702	0.00284504
3714	0.00295042
3726	0.00273967
3738	0.00500517
3750	0.00310847
3762	0.00252893
3774	0.00152789
3786	0.00247624
3798	0.00194938
3810	0.0022655
3822	0.00205475
3834	0.00258161
3846	0.00331922
3858	0.00331922
3870	0.00379339
3882	0.00426757
3894	0.00432025
3906	0.00463637
3918	0.00632232
3930	0.00558472
3942	0.00558472
3954	0
3966	0.000421488
