Infrared Spectrum: Benzene, 1-methyl-4-(1-methylethyl)-
Formula: C 10 H 14
CAS: 99-87-6
Origin: Sadtler Research Labs Under US-EPA Contract
1/CM	ABSORBANCE
450	0
462	0.00963184
474	0.0195045
486	0.0205881
498	0.0364806
510	0.0484
522	0.0723592
534	0.124612
546	0.115823
558	0.0646537
570	0.0332298
582	0.0242
594	0.0176985
606	0.0167353
618	0.0175781
630	0.0144478
642	0.0199861
654	0.0116786
666	0.0116786
678	0.0185413
690	0.0160129
702	0.0213104
714	0.0422597
726	0.0479184
738	0.026006
750	0.0204677
762	0.0191433
774	0.025404
786	0.0380458
798	0.104867
810	0.27234
822	0.251993
834	0.0818706
846	0.0374438
858	0.0261264
870	0.0240796
882	0.0263672
894	0.0297383
906	0.0267284
918	0.0264876
930	0.0276915
942	0.0285343
954	0.0278119
966	0.026006
978	0.0319055
990	0.0345542
1002	0.0285343
1014	0.075008
1026	0.0859642
1038	0.0443065
1050	0.0884925
1062	0.120639
1074	0.0648945
1086	0.0503264
1098	0.0594766
1110	0.0811483
1122	0.0609214
1134	0.0462328
1146	0.0417781
1158	0.0364806
1170	0.0403333
1182	0.0433433
1194	0.0452696
1206	0.0515303
1218	0.0493632
1230	0.0435841
1242	0.0392497
1254	0.037805
1266	0.0511691
1278	0.0485204
1290	0.0402129
1302	0.0786199
1314	0.0586338
1326	0.0484
1338	0.0553831
1350	0.0754895
1362	0.0899373
1374	0.109562
1386	0.11486
1398	0.0776567
1410	0.0669413
1422	0.0776567
1434	0.0803055
1446	0.0886129
1458	0.13015
1470	0.16037
1482	0.10896
1494	0.0742856
1506	0.162297
1518	0.304246
1530	0.0989672
1542	0.0386478
1554	0.026608
1566	0.0231164
1578	0.0244408
1590	0.023598
1602	0.0244408
1614	0.0274507
1626	0.0269692
1638	0.0356378
1650	0.0302199
1662	0.0203473
1674	0.014809
1686	0.0169761
1698	0.0272099
1710	0.0320259
1722	0.0294975
1734	0.0216716
1746	0.0264876
1758	0.0263672
1770	0.0234776
1782	0.0320259
1794	0.022996
1806	0.0131234
1818	0.0116786
1830	0.0101134
1842	0.011799
1854	0.0133642
1866	0.0156517
1878	0.0250428
1890	0.0361194
1902	0.0292567
1914	0.0166149
1926	0.0131234
1938	0.0115582
1950	0.0104746
1962	0.0102338
1974	0.00999303
1986	0.0103542
1998	0.0107154
2010	0.011197
2022	0.0114378
2034	0.0110766
2046	0.0102338
2058	0.0109562
2070	0.0113174
2082	0.00915025
2094	0.00854826
2106	0.00963184
2118	0.00987264
2130	0.00975224
2142	0.00927065
2154	0.00999303
2166	0.0103542
2178	0.0108358
2190	0.0113174
2202	0.0113174
2214	0.0109562
2226	0.0115582
2238	0.0116786
2250	0.0126418
2262	0.0132438
2274	0.0131234
2286	0.013605
2298	0.0134846
2310	0.0119194
2322	0.00866866
2334	0.00890945
2346	0.0131234
2358	0.00830746
2370	0.0202269
2382	0.0198657
2394	0.0149294
2406	0.0145682
2418	0.014207
2430	0.014809
2442	0.0149294
2454	0.0151701
2466	0.0163741
2478	0.0162537
2490	0.0161333
2502	0.0158925
2514	0.0155313
2526	0.0155313
2538	0.0158925
2550	0.0156517
2562	0.0162537
2574	0.0184209
2586	0.0220328
2598	0.0251632
2610	0.0222736
2622	0.0189025
2634	0.0169761
2646	0.0173373
2658	0.0169761
2670	0.0162537
2682	0.0178189
2694	0.0185413
2706	0.0210696
2718	0.0263672
2730	0.0304607
2742	0.0352766
2754	0.0304607
2766	0.0270896
2778	0.024802
2790	0.0256448
2802	0.0302199
2814	0.0375642
2826	0.0429821
2838	0.0534567
2850	0.0817502
2862	0.147969
2874	0.321101
2886	0.420791
2898	0.353248
2910	0.352405
2922	0.409835
2934	0.566834
2946	0.527704
2958	0.629441
2970	1.20398
2982	0.616197
2994	0.272701
3006	0.244288
3018	0.297142
3030	0.354693
3042	0.214068
3054	0.184931
3066	0.15736
3078	0.107877
3090	0.0878905
3102	0.0722388
3114	0.0473164
3126	0.0368418
3138	0.0345542
3150	0.0300995
3162	0.0255244
3174	0.0238388
3186	0.0226348
3198	0.022394
3210	0.0214308
3222	0.0191433
3234	0.0176985
3246	0.0145682
3258	0.0160129
3270	0.0134846
3282	0.0114378
3294	0.0114378
3306	0.0109562
3318	0.0137254
3330	0.0116786
3342	0.011197
3354	0.0120398
3366	0.0116786
3378	0.0107154
3390	0.0120398
3402	0.0110766
3414	0.0113174
3426	0.0127622
3438	0.0115582
3450	0.0116786
3462	0.00915025
3474	0.00999303
3486	0.0121602
3498	0.0113174
3510	0.0122806
3522	0.0107154
3534	0.0116786
3546	0.0121602
3558	0.010595
3570	0.0132438
3582	0.0128826
3594	0.0127622
3606	0.013003
3618	0.0125214
3630	0.0139662
3642	0.0169761
3654	0.0180597
3666	0.0178189
3678	0.0145682
3690	0.0131234
3702	0.0156517
3714	0.0162537
3726	0.0126418
3738	0.0146886
3750	0.0134846
3762	0.013605
3774	0.0149294
3786	0.0140866
3798	0.0121602
3810	0.0163741
3822	0.0149294
3834	0.0152905
3846	0.0174577
3858	0.0140866
3870	0.0149294
3882	0.0164945
3894	0.0168557
3906	0.0127622
3918	0.0154109
3930	0.0155313
3942	0.0151701
3954	0.0155313
3966	0.0133642
