Infrared Spectrum: Phenol, 4-(1-methylethyl)-
Formula: C 9 H 12 O
CAS: 99-89-8
Origin: Sadtler Research Labs Under US-EPA Contract
1/CM	ABSORBANCE
450	0.00391386
462	0.00470886
474	0.0121085
486	0.0117416
498	0.0136985
510	0.0190189
522	0.0310662
534	0.0608482
546	0.0613986
558	0.0436028
570	0.0206701
582	0.00605425
594	0.00244616
606	0.000489232
618	0.00122308
630	0.000672694
642	0.00366924
654	0.00165116
666	0.00134539
678	0.00568732
690	0.0239724
702	0.0247674
714	0.00483117
726	0.00397501
738	0.00311885
750	0.00103962
762	0.00256847
774	0.00525924
786	0.0120473
798	0.0351636
810	0.0713667
822	0.133255
834	0.142611
846	0.0510636
858	0.0101516
870	0.00483117
882	0.00318001
894	0.00201808
906	0.00061154
918	0.00348578
930	0.00428078
942	0.00409732
954	0.00299655
966	0.00195693
978	0.00171231
990	0.00262962
1002	0.00568732
1014	0.0165116
1026	0.0112523
1038	0.00978464
1050	0.0262351
1062	0.0325339
1074	0.0230551
1086	0.0314943
1098	0.0506967
1110	0.0435416
1122	0.0429913
1134	0.0363866
1146	0.0318001
1158	0.0889179
1170	0.544209
1182	0.49657
1194	0.139064
1206	0.0668413
1218	0.0569344
1230	0.0538767
1242	0.0957672
1254	0.294823
1266	0.215935
1278	0.0422574
1290	0.0259905
1302	0.0231774
1314	0.0471497
1326	0.0544882
1338	0.0618267
1350	0.0567509
1362	0.0331455
1374	0.0326562
1386	0.0365701
1398	0.0242781
1410	0.0171231
1422	0.027397
1434	0.0533874
1446	0.0465993
1458	0.0376709
1470	0.0461713
1482	0.0391386
1494	0.0514305
1506	0.248346
1518	0.3561
1530	0.0774821
1542	0.0166339
1554	0.0121696
1566	0.0100293
1578	0.0182239
1590	0.0478836
1602	0.0925872
1614	0.103901
1626	0.0506967
1638	0.0177958
1650	0.00642117
1662	0.0069104
1674	0.00275193
1686	0.00330232
1698	0.00183462
1710	0.00544271
1722	0.00593194
1734	0.00318001
1746	0.0069104
1758	0.00513694
1770	0.00281308
1782	0.00293539
1794	0.00116193
1806	0.00281308
1818	0.00336347
1830	0.00244616
1842	0.0053204
1854	0.00825579
1866	0.0100293
1878	0.010702
1890	0.00623771
1902	0.00440309
1914	0.00262962
1926	0.00214039
1938	0.00293539
1950	0.00348578
1962	0.00299655
1974	0.00238501
1986	0.0030577
1998	0.00354693
2010	0.00379155
2022	0.00232385
2034	0.0022627
2046	0.00201808
2058	0.00269078
2070	0.00342462
2082	0.0045254
2094	0.00354693
2106	0.00152885
2118	0.000733848
2130	0.00061154
2142	0.00030577
2154	0.000366924
2166	0.00030577
2178	0.000183462
2190	0.000489232
2202	0.00030577
2214	0.000489232
2226	0.00061154
2238	0.000733848
2250	0.00103962
2262	0.00189577
2274	0.00232385
2286	0.00269078
2298	0.00360809
2310	0.00415847
2322	0.00397501
2334	0.00489232
2346	0.00648232
2358	0.00525924
2370	0.00299655
2382	0.00269078
2394	0.0014677
2406	0.00220154
2418	0.00477001
2430	0.00825579
2442	0.00483117
2454	0.00250731
2466	0.00189577
2478	0.00250731
2490	0.00256847
2502	0.0030577
2514	0.00354693
2526	0.00256847
2538	0.00177347
2550	0.0014677
2562	0.00165116
2574	0.00171231
2586	0.00293539
2598	0.00428078
2610	0.00373039
2622	0.00244616
2634	0.00201808
2646	0.00244616
2658	0.00201808
2670	0.00207924
2682	0.00256847
2694	0.00244616
2706	0.00256847
2718	0.00366924
2730	0.0046477
2742	0.0046477
2754	0.00434193
2766	0.00550386
2778	0.00556501
2790	0.00501463
2802	0.00556501
2814	0.00666579
2826	0.00782771
2838	0.00935656
2850	0.0157166
2862	0.0306993
2874	0.0713056
2886	0.0984579
2898	0.0897129
2910	0.0888568
2922	0.0907525
2934	0.113135
2946	0.126956
2958	0.214773
2970	0.389062
2982	0.182789
2994	0.0528371
3006	0.0521644
3018	0.0761367
3030	0.0697156
3042	0.0642729
3054	0.0459267
3066	0.0380378
3078	0.0308828
3090	0.0203643
3102	0.0157166
3114	0.0140043
3126	0.0117416
3138	0.00905079
3150	0.00599309
3162	0.00574848
3174	0.0053204
3186	0.00580963
3198	0.00538155
3210	0.00470886
3222	0.00373039
3234	0.00336347
3246	0.00275193
3258	0.00287424
3270	0.00207924
3282	0.0014677
3294	0.0014677
3306	0.0014677
3318	0.00207924
3330	0.00177347
3342	0.00256847
3354	0.00379155
3366	0.00409732
3378	0.00373039
3390	0.0038527
3402	0.00428078
3414	0.00330232
3426	0.00336347
3438	0.00379155
3450	0.00183462
3462	0.00207924
3474	0.00250731
3486	0.00152885
3498	0.00159
3510	0.0014677
3522	0.00189577
3534	0.00183462
3546	0.000795002
3558	0.00061154
3570	0.000366924
3582	0.00238501
3594	0.00238501
3606	0.00281308
3618	0.0053204
3630	0.016267
3642	0.083781
3654	0.204071
3666	0.0858602
3678	0.00935656
3690	0.0030577
3702	0.00128423
3714	0.00030577
3726	6.1154e-05
3738	6.1154e-05
3750	0.000428078
3762	0.00128423
3774	0.00134539
3786	0.000428078
3798	0.00103962
3810	0.000733848
3822	0.00177347
3834	0.00171231
3846	0.00318001
3858	0.0030577
3870	0.00244616
3882	0.00250731
3894	0.00379155
3906	0.00134539
3918	0.00220154
3930	0.00281308
3942	0.0030577
3954	0.00354693
3966	0.0022627
