Infrared Spectrum: Ethanone, 1-(4-bromophenyl)-
Formula: C 8 H 7 Br O
CAS: 99-90-1
Origin: Sadtler Research Labs Under US-EPA Contract
1/CM	ABSORBANCE
450	0.0231567
462	0.0326415
474	0.0467406
486	0.0409301
498	0.0290527
510	0.0106811
522	0.0119629
534	0.0149536
546	0.000427245
558	0.00726317
570	0.0405883
582	0.0650267
594	0.0951902
606	0.114502
618	0.0134155
630	0.0227294
642	0.015039
654	0.0195678
666	0.0124756
678	0.0164917
690	0.0161499
702	0.0161499
714	0.0229003
726	0.0240112
738	0.123986
750	0.144665
762	0.015979
774	0.015979
786	0.0208496
798	0.037683
810	0.124841
822	0.17893
834	0.134069
846	0.0498168
858	0.0205932
870	0.0162353
882	0.0110229
894	0.0146972
906	0.0174316
918	0.0160644
930	0.0199951
942	0.0842527
954	0.207727
966	0.0762205
978	0.0375121
990	0.0375121
1002	0.105017
1014	0.29121
1026	0.0258056
1038	0.019226
1050	0.025122
1062	0.068701
1074	0.283007
1086	0.183715
1098	0.0326415
1110	0.0276855
1122	0.0177734
1134	0.0129882
1146	0.0134155
1158	0.0205932
1170	0.0555419
1182	0.0784422
1194	0.0307616
1206	0.0563963
1218	0.115783
1230	0.188757
1242	0.269506
1254	0.542345
1266	0.578062
1278	0.18645
1290	0.0606688
1302	0.064514
1314	0.0381957
1326	0.0277709
1338	0.0436644
1350	0.098779
1362	0.245495
1374	0.131677
1386	0.115869
1398	0.207043
1410	0.0873289
1422	0.0656248
1434	0.0610106
1446	0.0434081
1458	0.0472533
1470	0.0500731
1482	0.109802
1494	0.0622069
1506	0.0347777
1518	0.0261474
1530	0.0246948
1542	0.0522948
1554	0.0774168
1566	0.106299
1578	0.206103
1590	0.502953
1602	0.110998
1614	0.0276855
1626	0.0290527
1638	0.0343505
1650	0.0360595
1662	0.0499877
1674	0.0663084
1686	0.139453
1698	0.46245
1710	0.85355
1722	0.251647
1734	0.0663084
1746	0.0391356
1758	0.0400756
1770	0.0252075
1782	0.0139282
1794	0.0166626
1806	0.0106811
1818	0.00991208
1830	0.010852
1842	0.008374
1854	0.00811765
1866	0.0123047
1878	0.0106811
1890	0.0129028
1902	0.0123901
1914	0.0112793
1926	0.00957029
1938	0.00760496
1950	0.00666502
1962	0.00640867
1974	0.00512694
1986	0.00461425
1998	0.0046997
2010	0.00529784
2022	0.00529784
2034	0.00350341
2046	0.00230712
2058	0.00136718
2070	0.00179443
2082	0.00179443
2094	0.00222167
2106	0.00179443
2118	0.00205078
2130	0.00136718
2142	0.00239257
2154	0.000769041
2166	0.00136718
2178	0.00145263
2190	0.00179443
2202	0.00179443
2214	0.00187988
2226	0.00145263
2238	0.00153808
2250	0.00179443
2262	0.00205078
2274	0.00324706
2286	0.0046997
2298	0.00734861
2310	0.011792
2322	0.0134155
2334	0.0156372
2346	0.0148681
2358	0.0210205
2370	0.0164917
2382	0.00606688
2394	0.00111084
2406	0.00153808
2418	0.00153808
2430	0.00162353
2442	0.00119629
2454	0.00085449
2466	0.00136718
2478	0.00145263
2490	0.00222167
2502	0.00367431
2514	0.00478514
2526	0.00521239
2538	0.00675047
2550	0.00675047
2562	0.00623778
2574	0.00512694
2586	0.00427245
2598	0.00350341
2610	0.00247802
2622	0.00256347
2634	0.00239257
2646	0.00333251
2658	0.0043579
2670	0.00290527
2682	0.00162353
2694	0.00247802
2706	0.00102539
2718	0.00119629
2730	0.00119629
2742	0.00179443
2754	0.00264892
2766	0.00299072
2778	0.00213622
2790	0.00213622
2802	0.00264892
2814	0.00324706
2826	0.00299072
2838	0.00538329
2850	0.00657957
2862	0.0043579
2874	0.0043579
2886	0.00393065
2898	0.0038452
2910	0.00563963
2922	0.00897215
2934	0.0138427
2946	0.0123047
2958	0.012561
2970	0.0171752
2982	0.0187988
2994	0.0158081
3006	0.0229858
3018	0.0405028
3030	0.0227294
3042	0.0182861
3054	0.0180297
3066	0.0286254
3078	0.0246093
3090	0.0366576
3102	0.0270019
3114	0.0112793
3126	0.00777586
3138	0.00640867
3150	0.0046997
3162	0.00324706
3174	0.0043579
3186	0.0040161
3198	0.00213622
3210	0.00222167
3222	0.000939939
3234	0.00264892
3246	0.00247802
3258	0.00213622
3270	0.00128173
3282	0.000769041
3294	0.00273437
3306	0.00316161
3318	0.00145263
3330	0.00230712
3342	0.00247802
3354	0.00299072
3366	0.00512694
3378	0.00709227
3390	0.0164917
3402	0.015979
3414	0.00649412
3426	0.0038452
3438	0.0040161
3450	0.0043579
3462	0.00170898
3474	0.00247802
3486	0.00187988
3498	0.00324706
3510	0.00247802
3522	0.00230712
3534	0.00444335
3546	0.00324706
3558	0.00393065
3570	0.00666502
3582	0.00273437
3594	0.00555418
3606	0.0045288
3618	0.00504149
3630	0.010852
3642	0.00504149
3654	0.00692137
3666	0.00589598
3678	0.010083
3690	0.0105102
3702	0.00734861
3714	0.0110229
3726	0.0105957
3738	0.0126465
3750	0.012561
3762	0.00717772
3774	0.00598143
3786	0.00478514
3798	0.00982664
3810	0.00922849
3822	0.0130737
3834	0.0109375
3846	0.00991208
3858	0.0102539
3870	0.0109375
3882	0.00939939
3894	0.00922849
3906	0.00743406
3918	0.00529784
3930	0.00726317
3942	0.00751951
3954	0
3966	0.000598143
