Infrared Spectrum: Acetophenone, 4'-hydroxy-
Formula: C 8 H 8 O 2
CAS: 99-93-4
Origin: Sadtler Research Labs Under US-EPA Contract
1/CM	ABSORBANCE
450	0
462	0.0330894
474	0.0399744
486	0.0476816
498	0.0321645
510	0.0266154
522	0.0296982
534	0.0343225
546	0.0443932
558	0.10081
570	0.186821
582	0.109236
594	0.0816958
606	0.042749
618	0.0246629
630	0.0287734
642	0.0311369
654	0.0287734
666	0.0282596
678	0.0252795
690	0.0239435
702	0.0225049
714	0.0216828
726	0.0208607
738	0.0228132
750	0.0230187
762	0.0256905
774	0.0313424
786	0.0383302
798	0.0673091
810	0.10009
822	0.161439
834	0.228543
846	0.147155
858	0.064329
870	0.0374054
882	0.0269236
894	0.0248684
906	0.0259988
918	0.0285678
930	0.0394606
942	0.081593
954	0.127836
966	0.0761466
978	0.0417214
990	0.0375081
1002	0.0389468
1014	0.0448042
1026	0.0395634
1038	0.0359667
1050	0.0370971
1062	0.0422352
1074	0.0458319
1086	0.0482981
1098	0.0769687
1110	0.0925886
1122	0.0750163
1134	0.0932051
1146	0.149108
1158	0.41074
1170	0.655519
1182	0.641543
1194	0.417933
1206	0.106564
1218	0.096699
1230	0.173359
1242	0.344047
1254	0.762391
1266	0.975109
1278	0.231626
1290	0.0825179
1302	0.0849842
1314	0.0925886
1326	0.118176
1338	0.114271
1350	0.177778
1362	0.257213
1374	0.140065
1386	0.0589854
1398	0.0527169
1410	0.0803599
1422	0.144072
1434	0.138318
1446	0.076866
1458	0.0504561
1470	0.0381247
1482	0.0380219
1494	0.0640207
1506	0.155376
1518	0.137907
1530	0.057444
1542	0.0495313
1554	0.0457291
1566	0.06176
1578	0.151266
1590	0.386591
1602	0.566938
1614	0.440746
1626	0.13842
1638	0.0721389
1650	0.0645345
1662	0.0589854
1674	0.0856007
1686	0.254644
1698	0.648428
1710	0.492538
1722	0.131124
1734	0.0647401
1746	0.0447015
1758	0.0457291
1770	0.0375081
1782	0.0259988
1794	0.0259988
1806	0.0252795
1818	0.0218883
1830	0.0231215
1842	0.0224021
1854	0.0239435
1866	0.0244574
1878	0.0253822
1890	0.028054
1902	0.029801
1914	0.0264098
1926	0.0263071
1938	0.0294927
1950	0.0275402
1962	0.0239435
1974	0.0221966
1986	0.0206552
1998	0.0220938
2010	0.0224021
2022	0.0224021
2034	0.0225049
2046	0.0209634
2058	0.0203469
2070	0.0221966
2082	0.0224021
2094	0.0230187
2106	0.0218883
2118	0.0193193
2130	0.0195248
2142	0.0196275
2154	0.019422
2166	0.0197303
2178	0.0206552
2190	0.0207579
2202	0.0206552
2214	0.0201414
2226	0.0197303
2238	0.0200386
2250	0.0201414
2262	0.0204496
2274	0.0216828
2286	0.0230187
2298	0.0256905
2310	0.0284651
2322	0.0281568
2334	0.0268209
2346	0.0263071
2358	0.0250739
2370	0.025896
2382	0.0252795
2394	0.0212717
2406	0.0228132
2418	0.0253822
2430	0.0285678
2442	0.0300065
2454	0.0264098
2466	0.0220938
2478	0.0216828
2490	0.02158
2502	0.0224021
2514	0.0243546
2526	0.0253822
2538	0.0228132
2550	0.0209634
2562	0.0213745
2574	0.0219911
2586	0.0222994
2598	0.0227104
2610	0.0230187
2622	0.0224021
2634	0.0222994
2646	0.0227104
2658	0.0227104
2670	0.02158
2682	0.0213745
2694	0.0200386
2706	0.0195248
2718	0.019011
2730	0.0189082
2742	0.0187027
2754	0.0197303
2766	0.0218883
2778	0.0224021
2790	0.0207579
2802	0.0199358
2814	0.0199358
2826	0.0203469
2838	0.02158
2850	0.0232242
2862	0.0245601
2874	0.0243546
2886	0.0239435
2898	0.0240463
2910	0.0255877
2922	0.0308286
2934	0.0359667
2946	0.0348363
2958	0.0338087
2970	0.0376109
2982	0.038433
2994	0.0393578
3006	0.0545666
3018	0.0689533
3030	0.0684395
3042	0.0762494
3054	0.0564163
3066	0.0563136
3078	0.0629931
3090	0.0482981
3102	0.0401799
3114	0.036686
3126	0.0309314
3138	0.0261015
3150	0.023738
3162	0.023327
3174	0.0228132
3186	0.023327
3198	0.0231215
3210	0.0216828
3222	0.0217855
3234	0.0225049
3246	0.0231215
3258	0.0229159
3270	0.021169
3282	0.0217855
3294	0.0221966
3306	0.0229159
3318	0.0236353
3330	0.023738
3342	0.023327
3354	0.0242518
3366	0.0256905
3378	0.0300065
3390	0.0314452
3402	0.0245601
3414	0.0207579
3426	0.0205524
3438	0.0207579
3450	0.0184972
3462	0.0189082
3474	0.0197303
3486	0.0199358
3498	0.0199358
3510	0.0198331
3522	0.0198331
3534	0.0205524
3546	0.0198331
3558	0.0205524
3570	0.0210662
3582	0.0217855
3594	0.0220938
3606	0.0230187
3618	0.0272319
3630	0.0661787
3642	0.30397
3654	0.313321
3666	0.0597047
3678	0.0251767
3690	0.0228132
3702	0.0231215
3714	0.0218883
3726	0.0221966
3738	0.023738
3750	0.0208607
3762	0.0226076
3774	0.0220938
3786	0.0209634
3798	0.0247656
3810	0.0226076
3822	0.0248684
3834	0.0265126
3846	0.025485
3858	0.0245601
3870	0.0259988
3882	0.0240463
3894	0.0269236
3906	0.0243546
3918	0.025485
3930	0.0261015
3942	0.0261015
3954	0.0256905
3966	0.0269236
