Infrared Spectrum: Ethanone, 1-(4-chlorophenyl)-
Formula: C 8 H 7 Cl O
CAS: 99-91-2
Origin: Sadtler Research Labs Under US-EPA Contract
1/CM	ABSORBANCE
450	0.0238536
462	0.0067383
474	0.0132745
486	0.0153633
498	0.0394191
510	0.0341632
522	0.0825442
534	0.0174522
546	0.0039756
558	0.0123311
570	0.0239883
582	0.0520197
594	0.0435294
606	0.0384083
618	0.0554562
630	0.0182608
642	0.00815334
654	0.00121289
666	0.00451466
678	0.00539064
690	0.00613185
702	0.00849026
714	0.0161719
726	0.0107139
738	0.0101748
750	0.069674
762	0.118122
774	0.00640138
786	0.0144873
798	0.0258077
810	0.078636
822	0.155722
834	0.163673
846	0.0669787
858	0.0185977
870	0.00875979
882	0.00437989
894	0.00680568
906	0.00646877
918	0.00842287
930	0.0146221
942	0.0652941
954	0.138405
966	0.0636096
978	0.0260098
990	0.0147569
1002	0.0360499
1014	0.16118
1026	0.0311983
1038	0.0200128
1050	0.0236514
1062	0.0303224
1074	0.0441359
1086	0.129443
1098	0.419931
1110	0.0829485
1122	0.0223038
1134	0.00977054
1146	0.00579494
1158	0.00875979
1170	0.0408341
1182	0.0490548
1194	0.0128702
1206	0.0213604
1218	0.0568039
1230	0.107206
1242	0.276607
1254	0.647012
1266	0.374649
1278	0.12823
1290	0.0793772
1302	0.0493917
1314	0.0208213
1326	0.0131397
1338	0.0242579
1350	0.0880022
1362	0.20316
1374	0.0905628
1386	0.0973684
1398	0.135507
1410	0.0756037
1422	0.0560627
1434	0.0539064
1446	0.0343653
1458	0.0187999
1470	0.0212256
1482	0.072302
1494	0.0898215
1506	0.0130049
1518	0.0137461
1530	0.0139483
1542	0.0136787
1554	0.0332872
1566	0.0915061
1578	0.144537
1590	0.248037
1602	0.240086
1614	0.0613185
1626	0.0255382
1638	0.0188672
1650	0.0206192
1662	0.0353761
1674	0.0433947
1686	0.0974358
1698	0.392102
1710	0.672617
1722	0.232539
1734	0.0449445
1746	0.0257403
1758	0.0252686
1770	0.014959
1782	0.00936624
1794	0.00835549
1806	0.00741213
1818	0.0039756
1830	0.00464943
1842	0.00545802
1854	0.00640138
1866	0.00774905
1878	0.010916
1890	0.0120616
1902	0.0105117
1914	0.00929885
1926	0.00680568
1938	0.00579494
1950	0.00491896
1962	0.00283009
1974	0.00336915
1986	0.00289747
1998	0.00323438
2010	0.00437989
2022	0.00384083
2034	0.00377345
2046	0.00168458
2058	0.00181934
2070	0.00181934
2082	0.00134766
2094	0.00181934
2106	0.00181934
2118	0.00175196
2130	0.00134766
2142	0.00141504
2154	0.00175196
2166	0.00154981
2178	0.00168458
2190	0.00175196
2202	0.00175196
2214	0.00175196
2226	0.00154981
2238	0.00168458
2250	0.00168458
2262	0.00168458
2274	0.00296485
2286	0.00323438
2298	0.00464943
2310	0.00485158
2322	0.0059297
2334	0.00727736
2346	0.00518849
2358	0.00606447
2370	0.00545802
2382	0.00188672
2394	0.00161719
2406	0.00161719
2418	0.00168458
2430	0.00181934
2442	0.00121289
2454	0.000606447
2466	0.00107813
2478	0.00128028
2490	0.00181934
2502	0.00296485
2514	0.00309962
2526	0.003167
2538	0.00437989
2550	0.00566017
2562	0.00505373
2574	0.00404298
2586	0.00202149
2598	0.00202149
2610	0.00202149
2622	0.00154981
2634	0.00154981
2646	0.00154981
2658	0.00175196
2670	0.00188672
2682	0.00148243
2694	0.00114551
2706	0.00121289
2718	0.00154981
2730	0.00107813
2742	0.00154981
2754	0.00168458
2766	0.00154981
2778	0.00121289
2790	0.00161719
2802	0.00154981
2814	0.00202149
2826	0.00195411
2838	0.00424513
2850	0.00518849
2862	0.00424513
2874	0.00303223
2886	0.00350392
2898	0.00303223
2910	0.00451466
2922	0.00747951
2934	0.0113877
2946	0.0114551
2958	0.00970315
2970	0.0139483
2982	0.0160372
2994	0.012668
3006	0.0178565
3018	0.0328155
3030	0.017587
3042	0.0151612
3054	0.0153633
3066	0.0196085
3078	0.0211583
3090	0.0303224
3102	0.0272227
3114	0.0109834
3126	0.00539064
3138	0.00431251
3150	0.003167
3162	0.0027627
3174	0.00215626
3186	0.00283009
3198	0.00154981
3210	0.000875979
3222	0.000875979
3234	0.000202149
3246	0.00141504
3258	0.00148243
3270	0.00242579
3282	0.00195411
3294	0.00175196
3306	0.00134766
3318	0.00168458
3330	0.00114551
3342	0.00229102
3354	0.00289747
3366	0.00262794
3378	0.00572756
3390	0.0125332
3402	0.0118594
3414	0.00606447
3426	0.00289747
3438	0.00195411
3450	0.00229102
3462	0.00330177
3474	0.00222364
3486	0.00256055
3498	0.000808596
3510	0.00242579
3522	0.00222364
3534	0.00222364
3546	0.00222364
3558	0.00262794
3570	0.00235841
3582	0.00242579
3594	0.00242579
3606	0.00303223
3618	0.00121289
3630	0.00154981
3642	0.00195411
3654	0.00101074
3666	0.00215626
3678	0.00114551
3690	0.00154981
3702	0.0027627
3714	0.00215626
3726	0.00262794
3738	0.00168458
3750	0.000875979
3762	0.00229102
3774	0.003167
3786	0.00296485
3798	0.00242579
3810	0.00336915
3822	0.00296485
3834	0.00235841
3846	0.00235841
3858	0.0039756
3870	0.003167
3882	0.00417775
3894	0.00377345
3906	0.00384083
3918	0.00283009
3930	0.00283009
3942	0.00289747
3954	0.00067383
3966	0.000943362
