Infrared Spectrum: Benzenamine, N,N,4-trimethyl-
Formula: C 9 H 13 N
CAS: 99-97-8
Origin: Sadtler Research Labs Under US-EPA Contract
1/CM	ABSORBANCE
450	0.00614591
462	0.0113278
474	0.0109662
486	0.0187992
498	0.0239208
510	0.0280181
522	0.0434431
534	0.0259695
546	0.0201851
558	0.00102432
570	0.0176544
582	0.00403702
594	0.0125931
606	0.00500108
618	0.00590489
630	0.00494083
642	0.003796
654	0.00698946
666	0.00867658
678	0.0221735
690	0.023017
702	0.0100022
714	0.00976115
726	0.0074715
738	0.0101227
750	0.0107855
762	0.00933937
774	0.0137379
786	0.0288014
798	0.0970692
810	0.141778
822	0.082307
834	0.0230773
846	0.0138584
858	0.00584464
870	0.00783302
882	0.00849581
894	0.00753175
906	0.0128944
918	0.0172326
930	0.0263913
942	0.0871875
954	0.0851389
966	0.0242824
978	0.0193415
990	0.0139789
1002	0.0124123
1014	0.0137982
1026	0.0159673
1038	0.0222337
1050	0.0421175
1062	0.0501313
1074	0.0447687
1086	0.030609
1098	0.034405
1110	0.0443469
1122	0.060013
1134	0.0753778
1146	0.105505
1158	0.162324
1170	0.11864
1182	0.0599527
1194	0.0619411
1206	0.0736304
1218	0.0940565
1230	0.083271
1242	0.0519389
1254	0.0345255
1266	0.0303078
1278	0.0287412
1290	0.033682
1302	0.0527825
1314	0.0836928
1326	0.163108
1338	0.247041
1350	0.171784
1362	0.079475
1374	0.0570605
1386	0.0376588
1398	0.0330794
1410	0.0333205
1422	0.0383818
1434	0.0510351
1446	0.0757995
1458	0.0822467
1470	0.0897785
1482	0.089658
1494	0.089658
1506	0.186848
1518	0.532103
1530	0.445157
1542	0.109843
1554	0.053144
1566	0.0420573
1578	0.0431419
1590	0.0391651
1602	0.0708587
1614	0.137259
1626	0.1328
1638	0.0539273
1650	0.0259695
1662	0.015666
1674	0.0146417
1686	0.0155455
1698	0.0333205
1710	0.0917066
1722	0.0414548
1734	0.0159673
1746	0.0130149
1758	0.00891759
1770	0.00795353
1782	0.00596515
1794	0.00698946
1806	0.00590489
1818	0.00584464
1830	0.00771251
1842	0.00952013
1854	0.0131354
1866	0.0126533
1878	0.0100624
1890	0.00698946
1902	0.00638692
1914	0.00259092
1926	0.00295245
1938	0.00253067
1950	0.00343448
1962	0.0030127
1974	0.00391651
1986	0.00361524
1998	0.00421778
2010	0.00536261
2022	0.00620616
2034	0.00421778
2046	0.00343448
2058	0.00277168
2070	0.00210889
2082	0.0015666
2094	0.00192813
2106	0.00228965
2118	0.00180762
2130	0.00295245
2142	0.00192813
2154	0.00295245
2166	0.000241016
2178	0.00174737
2190	0.00126533
2202	0.00397676
2214	0.00265118
2226	0.00259092
2238	0.00162686
2250	0.00150635
2262	0.00198838
2274	0.00180762
2286	0.00319346
2298	0.00307295
2310	0.00355499
2322	0.00265118
2334	0.0015666
2346	0.00120508
2358	0.00596515
2370	0.00777277
2382	0.00325372
2394	0.00228965
2406	0.00319346
2418	0.00174737
2430	0.00361524
2442	0.00277168
2454	0.00476007
2466	0.00433829
2478	0.00476007
2490	0.0044588
2502	0.00482032
2514	0.00488057
2526	0.00512159
2538	0.00596515
2550	0.00590489
2562	0.00644718
2574	0.00638692
2586	0.00614591
2598	0.00662794
2610	0.00704972
2622	0.0074715
2634	0.00741124
2646	0.00717023
2658	0.00831505
2670	0.00741124
2682	0.00964064
2694	0.00855607
2706	0.0114483
2718	0.011147
2730	0.0159673
2742	0.0233183
2754	0.030127
2766	0.0441059
2778	0.0785712
2790	0.135752
2802	0.163349
2814	0.134848
2826	0.11629
2838	0.126232
2850	0.14003
2862	0.15648
2874	0.182871
2886	0.17323
2898	0.14467
2910	0.140814
2922	0.169253
2934	0.221735
2946	0.195886
2958	0.178593
2970	0.149249
2982	0.143706
2994	0.138162
3006	0.121352
3018	0.122376
3030	0.137319
3042	0.0979128
3054	0.0509749
3066	0.0408522
3078	0.0452508
3090	0.0439854
3102	0.0383215
3114	0.0269938
3126	0.0148827
3138	0.0106047
3150	0.00753175
3162	0.00566388
3174	0.00319346
3186	0.00427803
3198	0.00319346
3210	0.00415753
3222	0.00168711
3234	0.00349473
3246	0.00180762
3258	0.00391651
3270	0.00367549
3282	0.00439854
3294	0.00295245
3306	0.00343448
3318	0.00204864
3330	0.00192813
3342	0.00277168
3354	0.0030127
3366	0.00325372
3378	0.00241016
3390	0.00331397
3402	0.00241016
3414	0.00325372
3426	0.00385626
3438	0.00451905
3450	0.00476007
3462	0.00397676
3474	0.00265118
3486	0.00259092
3498	0.00210889
3510	0.0044588
3522	0.00234991
3534	0.00469981
3546	0.00367549
3558	0.00403702
3570	0.00355499
3582	0.00427803
3594	0.00512159
3606	0.00482032
3618	0.00632667
3630	0.00548311
3642	0.0045793
3654	0.00331397
3666	0.00542286
3678	0.00482032
3690	0.00638692
3702	0.00578438
3714	0.00608565
3726	0.00566388
3738	0.0068087
3750	0.00819454
3762	0.00632667
3774	0.00476007
3786	0.00554337
3798	0.0045793
3810	0.00488057
3822	0.00482032
3834	0.00590489
3846	0.00614591
3858	0.0068087
3870	0.00843556
3882	0.00488057
3894	0.00698946
3906	0.00512159
3918	0.0060254
3930	0.0045793
3942	0.00590489
3954	0
3966	0.000421778
