Infrared Spectrum: Acetophenone, 4'-amino-
Formula: C 8 H 9 N O
CAS: 99-92-3
Origin: Sadtler Research Labs Under US-EPA Contract
1/CM	ABSORBANCE
450	0
462	0.138321
474	0.0536114
486	0.091269
498	0.0755581
510	0.0429215
522	0.0753151
534	0.0834945
546	0.086248
558	0.170228
570	0.208777
582	0.155489
594	0.109085
606	0.085924
618	0.0769348
630	0.0844663
642	0.0916739
654	0.114268
666	0.146095
678	0.130222
690	0.147634
702	0.12593
714	0.106575
726	0.109652
738	0.0894063
750	0.0773397
762	0.0771778
774	0.070861
786	0.0739384
798	0.0958041
810	0.12674
822	0.174197
834	0.175897
846	0.104145
858	0.0665688
870	0.055474
882	0.0494002
894	0.0499671
906	0.0491573
918	0.0523966
930	0.0640583
942	0.108519
954	0.133948
966	0.0835755
978	0.060657
990	0.0549881
1002	0.0549881
1014	0.0546642
1026	0.0519917
1038	0.0479425
1050	0.0464848
1062	0.0536114
1074	0.0596042
1086	0.0560409
1098	0.0575796
1110	0.0639774
1122	0.0776637
1134	0.080903
1146	0.070699
1158	0.0715089
1170	0.240765
1182	0.323126
1194	0.0769348
1206	0.0636534
1218	0.0691603
1230	0.0987195
1242	0.1959
1254	0.480397
1266	0.80984
1278	0.451648
1290	0.2321
1302	0.117103
1314	0.0821988
1326	0.0594423
1338	0.0715899
1350	0.156866
1362	0.235259
1374	0.122772
1386	0.0617908
1398	0.0562029
1410	0.0644633
1422	0.0941034
1434	0.111434
1446	0.0781496
1458	0.0550691
1470	0.0519917
1482	0.0494812
1494	0.0600091
1506	0.0980716
1518	0.12018
1530	0.0745053
1542	0.0636534
1554	0.0553931
1566	0.0773397
1578	0.135891
1590	0.268705
1602	0.505016
1614	0.506312
1626	0.600577
1638	0.336893
1650	0.132976
1662	0.0980716
1674	0.137592
1686	0.396336
1698	0.58762
1710	0.248135
1722	0.0907021
1734	0.060576
1746	0.0498052
1758	0.0509389
1770	0.0409779
1782	0.0358759
1794	0.0359569
1806	0.0335274
1818	0.0332844
1830	0.0342562
1842	0.0335274
1854	0.0362808
1866	0.0370907
1878	0.0366048
1890	0.0369287
1902	0.0375766
1914	0.0368477
1926	0.0391153
1938	0.040411
1950	0.0399251
1962	0.0384674
1974	0.0346612
1986	0.0335274
1998	0.0341752
2010	0.035309
2022	0.0370097
2034	0.035552
2046	0.0343372
2058	0.0335274
2070	0.0325556
2082	0.0317457
2094	0.0330415
2106	0.0336084
2118	0.0333654
2130	0.0328795
2142	0.0320697
2154	0.0325556
2166	0.0319077
2178	0.0319887
2190	0.0327985
2202	0.0318267
2214	0.0307739
2226	0.030126
2238	0.0298831
2250	0.0300451
2262	0.03045
2274	0.0315838
2286	0.0322316
2298	0.0345802
2310	0.0357949
2322	0.0351471
2334	0.0366048
2346	0.0390343
2358	0.0344182
2370	0.0412209
2382	0.0361998
2394	0.030531
2406	0.0297211
2418	0.030126
2430	0.0317457
2442	0.0319887
2454	0.03045
2466	0.030126
2478	0.0283444
2490	0.0280205
2502	0.0279395
2514	0.0282634
2526	0.0281824
2538	0.0272106
2550	0.0264008
2562	0.0279395
2574	0.0299641
2586	0.0319077
2598	0.0339323
2610	0.0348231
2622	0.0344992
2634	0.0345802
2646	0.0346612
2658	0.0325556
2670	0.0310979
2682	0.030531
2694	0.0299641
2706	0.0296401
2718	0.0297211
2730	0.0293162
2742	0.0288303
2754	0.0297211
2766	0.030369
2778	0.0312598
2790	0.0307739
2802	0.0308549
2814	0.03045
2826	0.0312598
2838	0.0323126
2850	0.0336084
2862	0.0349041
2874	0.03539
2886	0.03539
2898	0.0366048
2910	0.0374146
2922	0.040573
2934	0.0446222
2946	0.0432455
2958	0.0415448
2970	0.0451081
2982	0.0468088
2994	0.0516678
3006	0.0719138
3018	0.0824417
3030	0.0883535
3042	0.104793
3054	0.0785545
3066	0.0713469
3078	0.0645442
3090	0.055474
3102	0.0523966
3114	0.0469707
3126	0.0421117
3138	0.0379815
3150	0.0365238
3162	0.0357139
3174	0.0338513
3186	0.0342562
3198	0.0361189
3210	0.0393582
3222	0.0379815
3234	0.0357949
3246	0.0331225
3258	0.0324746
3270	0.0332844
3282	0.0330415
3294	0.0333654
3306	0.0335274
3318	0.0336084
3330	0.0340943
3342	0.0347421
3354	0.0367667
3366	0.0412209
3378	0.0449461
3390	0.0447032
3402	0.0561219
3414	0.0866529
3426	0.0982336
3438	0.0754771
3450	0.0476996
3462	0.0374146
3474	0.0383054
3486	0.0436504
3498	0.0529635
3510	0.0579845
3522	0.0536114
3534	0.045675
3546	0.0351471
3558	0.0323126
3570	0.030612
3582	0.0324746
3594	0.0293972
3606	0.0307739
3618	0.0294782
3630	0.030207
3642	0.0314218
3654	0.0314218
3666	0.0334464
3678	0.0310169
3690	0.0340133
3702	0.0319077
3714	0.0323936
3726	0.0298831
3738	0.0327985
3750	0.0344992
3762	0.0328795
3774	0.0324746
3786	0.0344182
3798	0.0319077
3810	0.0362808
3822	0.0332844
3834	0.035552
3846	0.0374146
3858	0.0366048
3870	0.035633
3882	0.030126
3894	0.0334464
3906	0.0335274
3918	0.0341752
3930	0.0351471
3942	0.0361998
3954	0.0377385
3966	0.0350661
