Infrared Spectrum: Benzoic acid, 4-hydroxy-
Formula: C 7 H 6 O 3
CAS: 99-96-7
Origin: Sadtler Research Labs Under US-EPA Contract
1/CM	ABSORBANCE
450	0.00786975
462	0.00856229
474	0.0228538
486	0.0536402
498	0.0999773
510	0.0440076
522	0.0122139
534	0.0144174
546	0.0302198
558	0.0517515
570	0.0776272
582	0.0849933
594	0.141718
606	0.0455816
618	0.00352565
630	0.007492
642	0.0136619
654	0.0124657
666	0.014921
678	0.0279534
690	0.0587398
702	0.0460853
714	0.0267572
726	0.0267572
738	0.0175023
750	0.0343751
762	0.0708907
774	0.0880782
786	0.0497368
798	0.0249314
810	0.0271349
822	0.028457
834	0.0585509
846	0.0768717
858	0.0370823
870	0.0153618
882	0.00585509
894	0.00465889
906	0.00560326
918	0.00679946
930	0.00956962
942	0.00793271
954	0.00591805
966	0.00623284
978	0.00547735
990	0.00371452
1002	0.0086882
1014	0.0198318
1026	0.0195799
1038	0.0219723
1050	0.0398524
1062	0.119557
1074	0.330152
1086	0.30522
1098	0.0986552
1110	0.0537032
1122	0.0384044
1134	0.0477222
1146	0.144048
1158	0.557115
1170	0.475459
1182	0.312209
1194	0.306983
1206	0.0968924
1218	0.0414893
1230	0.047974
1242	0.0743534
1254	0.168727
1266	0.291118
1278	0.133849
1290	0.0394747
1302	0.046463
1314	0.0927371
1326	0.176597
1338	0.115906
1350	0.0780679
1362	0.150533
1374	0.0958221
1386	0.0275126
1398	0.0158025
1410	0.0199577
1422	0.0406079
1434	0.0547735
1446	0.026946
1458	0.0142285
1470	0.00938074
1482	0.0116472
1494	0.0252462
1506	0.0769347
1518	0.100418
1530	0.032927
1542	0.0138508
1554	0.0125916
1566	0.0198947
1578	0.0376489
1590	0.115654
1602	0.229923
1614	0.217961
1626	0.0951295
1638	0.02852
1650	0.0208391
1662	0.016558
1674	0.0146063
1686	0.0191392
1698	0.0276386
1710	0.0341862
1722	0.0391599
1734	0.0756126
1746	0.338966
1758	0.62958
1770	0.367486
1782	0.0862525
1794	0.0281422
1806	0.0182578
1818	0.014921
1830	0.0112695
1842	0.00572918
1854	0.00289607
1866	0.00264424
1878	0.00302198
1890	0.00409227
1902	0.00761792
1914	0.00963257
1926	0.00661059
1938	0.0039034
1950	0.00358861
1962	0.00327382
1974	0.00245536
1986	0.00289607
1998	0.00327382
2010	0.00226649
2022	0.00151099
2034	0.00144803
2046	0.0011962
2058	0.00094437
2070	0.00144803
2082	0.00207761
2094	0.00333677
2106	0.0039034
2118	0.00188874
2130	0.00125916
2142	0.0023924
2154	0.00264424
2166	0.00201466
2178	0.00125916
2190	0.000566622
2202	0.000755496
2214	0.00125916
2226	0.00132212
2238	0.00220353
2250	0.0019517
2262	0.00169987
2274	0.00258128
2286	0.00415523
2298	0.00654763
2310	0.00894004
2322	0.0082475
2334	0.00547735
2346	0.0082475
2358	0.00686242
2370	0.00484777
2382	0.00799567
2394	0.00277015
2406	0.00339973
2418	0.00503664
2430	0.00610693
2442	0.00661059
2454	0.00598101
2466	0.00377748
2478	0.00295903
2490	0.00295903
2502	0.00283311
2514	0.00321086
2526	0.00384044
2538	0.00302198
2550	0.00188874
2562	0.00207761
2574	0.0019517
2586	0.00277015
2598	0.00308494
2610	0.00289607
2622	0.00289607
2634	0.00251832
2646	0.00232945
2658	0.00245536
2670	0.00251832
2682	0.00258128
2694	0.00258128
2706	0.00220353
2718	0.00182578
2730	0.00157395
2742	0.00163691
2754	0.00245536
2766	0.00295903
2778	0.00258128
2790	0.0023924
2802	0.00201466
2814	0.00214057
2826	0.00258128
2838	0.00295903
2850	0.00232945
2862	0.0031479
2874	0.00277015
2886	0.00289607
2898	0.00277015
2910	0.00251832
2922	0.00365156
2934	0.00453298
2946	0.00409227
2958	0.00358861
2970	0.00402931
2982	0.00321086
2994	0.00365156
3006	0.00667355
3018	0.0115213
3030	0.0145433
3042	0.019517
3054	0.0167468
3066	0.0116472
3078	0.0151729
3090	0.0136619
3102	0.00736609
3114	0.00686242
3126	0.00528847
3138	0.00358861
3150	0.00283311
3162	0.00226649
3174	0.00214057
3186	0.00220353
3198	0.00220353
3210	0.0019517
3222	0.00201466
3234	0.00264424
3246	0.00214057
3258	0.00277015
3270	0.00302198
3282	0.0023924
3294	0.00289607
3306	0.00421819
3318	0.00365156
3330	0.00308494
3342	0.00358861
3354	0.00371452
3366	0.00428114
3378	0.00358861
3390	0.00339973
3402	0.0031479
3414	0.00245536
3426	0.00264424
3438	0.0031479
3450	0.00176282
3462	0.00169987
3474	0.0019517
3486	0.00371452
3498	0.00409227
3510	0.00226649
3522	0.00151099
3534	0.00163691
3546	0.00396635
3558	0.00415523
3570	0.0277645
3582	0.191896
3594	0.170301
3606	0.00956962
3618	0.00724017
3630	0.0278274
3642	0.141404
3654	0.137311
3666	0.0226019
3678	0.00654763
3690	0.00201466
3702	0.00415523
3714	0.0023924
3726	0.00302198
3738	0.00409227
3750	0.00176282
3762	0.00214057
3774	0.00100733
3786	0.000125916
3798	0.00182578
3810	0.00107029
3822	0.0039034
3834	0.00201466
3846	0.0031479
3858	0.00220353
3870	0.00358861
3882	0.00352565
3894	0.00169987
3906	0.0043441
3918	0.00327382
3930	0.00176282
3942	0.0019517
3954	0.00132212
3966	0.00264424
