Infrared Spectrum: Benzene, 1-methyl-4-nitro-
Formula: C 7 H 7 N O 2
CAS: 99-99-0
Origin: Sadtler Research Labs Under US-EPA Contract
1/CM	ABSORBANCE
450	0.0142335
462	0.0159884
474	0.0165733
486	0.0189131
498	0.019303
510	0.00506948
522	0.00058494
534	0.00545944
546	0.0058494
558	0.00155984
570	0.00701928
582	0.00350964
594	0.0103339
606	0.0629785
618	0.0894958
630	0.0126737
642	0.00818916
654	0.00331466
666	0.0206679
678	0.0499149
690	0.0308068
702	0.0146235
714	0.0440655
726	0.173142
738	0.320352
750	0.167293
762	0.0337315
774	0.0481601
786	0.109189
798	0.0360713
810	0.0750673
822	0.176457
834	0.343945
846	0.294615
858	0.400489
870	0.105484
882	0.0155984
894	0.010139
906	0.009749
918	0.00701928
930	0.0109189
942	0.0220327
954	0.0253474
966	0.0154034
978	0.0087741
990	0.00604438
1002	0.0122837
1014	0.0756522
1026	0.0647334
1038	0.0218378
1050	0.0278821
1062	0.0239825
1074	0.0245675
1086	0.0298319
1098	0.087741
1110	0.164563
1122	0.0789669
1134	0.0140386
1146	0.00701928
1158	0.00448454
1170	0.0532295
1182	0.103144
1194	0.038801
1206	0.0471852
1218	0.038801
1230	0.0341215
1242	0.0310018
1254	0.0216428
1266	0.0339265
1278	0.058689
1290	0.0752623
1302	0.0854012
1314	0.128882
1326	0.171582
1338	0.683015
1350	1.74254
1362	1.2506
1374	0.297345
1386	0.125957
1398	0.077602
1410	0.0723376
1422	0.0635635
1434	0.0504998
1446	0.0516697
1458	0.129662
1470	0.156764
1482	0.148575
1494	0.253084
1506	0.314698
1518	0.5826
1530	1.56666
1542	1.40776
1554	0.860642
1566	0.404584
1578	0.300269
1590	0.349989
1602	0.526641
1614	0.306899
1626	0.132976
1638	0.058299
1650	0.0592739
1662	0.0516697
1674	0.0467952
1686	0.0319767
1698	0.0397759
1710	0.019888
1722	0.0155984
1734	0.0310018
1746	0.019498
1758	0.0152084
1770	0.0232026
1782	0.0325617
1794	0.039191
1806	0.0140386
1818	0.00370462
1830	0.00955402
1842	0.00701928
1854	0.00155984
1866	0.00760422
1878	0.00604438
1890	0.0126737
1902	0.0210578
1914	0.0317817
1926	0.0255424
1938	0.0105289
1950	0.0058494
1962	0.00740924
1974	0.00623936
1986	0.00331466
1998	0.00253474
2010	0.00175482
2022	0.00155984
2034	0.00077992
2046	0.00175482
2058	0
2070	0.0009749
2082	0.0009749
2094	0.00058494
2106	0.00116988
2118	0.00155984
2130	0.0009749
2142	0.00155984
2154	0.00077992
2166	0.00175482
2178	0.00175482
2190	0.00058494
2202	0.00253474
2214	0.00428956
2226	0.00272972
2238	0.00116988
2250	0.00038996
2262	0
2274	0.00233976
2286	0.00565442
2298	0.00526446
2310	0.00350964
2322	0.00233976
2334	0.00155984
2346	0.00233976
2358	0.0029247
2370	0.00545944
2382	0.0087741
2394	0.00701928
2406	0.00565442
2418	0.00526446
2430	0.0048745
2442	0.0077992
2454	0.0140386
2466	0.0128687
2478	0.0068243
2490	0.00311968
2502	0.00253474
2514	0.00428956
2526	0.00370462
2538	0.00233976
2550	0.00272972
2562	0.00331466
2574	0.00448454
2586	0.00760422
2598	0.00838414
2610	0.00838414
2622	0.0068243
2634	0.00409458
2646	0.00350964
2658	0.00331466
2670	0.00409458
2682	0.0068243
2694	0.0109189
2706	0.0140386
2718	0.0126737
2730	0.0087741
2742	0.0103339
2754	0.0109189
2766	0.00740924
2778	0.00701928
2790	0.00857912
2802	0.00955402
2814	0.0113088
2826	0.0148185
2838	0.0220327
2850	0.0343165
2862	0.0571291
2874	0.0902757
2886	0.100025
2898	0.0813067
2910	0.0742874
2922	0.0943703
2934	0.159494
2946	0.152669
2958	0.0863761
2970	0.0573241
2982	0.0518647
2994	0.0610287
3006	0.0707777
3018	0.0717526
3030	0.0754573
3042	0.128102
3054	0.154619
3066	0.118158
3078	0.0863761
3090	0.0633685
3102	0.0183281
3114	0.0126737
3126	0.00818916
3138	0.00565442
3150	0.00448454
3162	0.00409458
3174	0.00331466
3186	0.00350964
3198	0.0048745
3210	0.00623936
3222	0.0058494
3234	0.00506948
3246	0.00272972
3258	0.00253474
3270	0.00311968
3282	0.00233976
3294	0.00272972
3306	0.00370462
3318	0.00253474
3330	0.00272972
3342	0.00311968
3354	0.00311968
3366	0.00409458
3378	0.00311968
3390	0.0029247
3402	0.00311968
3414	0.0029247
3426	0.0029247
3438	0.00409458
3450	0.00272972
3462	0.0029247
3474	0.0029247
3486	0.00175482
3498	0.00331466
3510	0.00253474
3522	0.00155984
3534	0.00409458
3546	0.00331466
3558	0.00116988
3570	0.00331466
3582	0.00272972
3594	0.00350964
3606	0.00311968
3618	0.00467952
3630	0.00565442
3642	0.00448454
3654	0.00331466
3666	0.00545944
3678	0.0103339
3690	0.00311968
3702	0.00545944
3714	0.00818916
3726	0.0068243
3738	0.00604438
3750	0.00701928
3762	0.00545944
3774	0.0048745
3786	0.0048745
3798	0.00253474
3810	0.00604438
3822	0.00604438
3834	0.00565442
3846	0.00545944
3858	0.00604438
3870	0.00721426
3882	0.00896908
3894	0.00506948
3906	0.00994398
3918	0.00740924
3930	0.00370462
3942	0.0058494
3954	0.0058494
3966	0.00565442
