Infrared Spectrum: Benzoic acid, 4-methyl-
Formula: C 8 H 8 O 2
CAS: 99-94-5
Origin: Sadtler Research Labs Under US-EPA Contract
1/CM	ABSORBANCE
450	0.108917
462	0.0938615
474	0.114207
486	0.0732445
498	0.0202101
510	0.0170904
522	0.0343164
534	0.0698536
546	0.077178
558	0.112173
570	0.190029
582	0.228279
594	0.189486
606	0.0287553
618	0.00990157
630	0.0126143
642	0.0207526
654	0.0193962
666	0.00813828
678	0.0337739
690	0.0845025
702	0.0949466
714	0.16792
726	0.0687685
738	0.107018
750	0.219327
762	0.216207
774	0.0830105
786	0.0330957
798	0.0254999
810	0.0256356
822	0.0345877
834	0.040827
846	0.0417765
858	0.0100372
870	0
882	0.00759573
894	0.00895211
906	0.00718881
918	0.00461169
930	0.00718881
942	0.0149202
954	0.0151915
966	0.0141064
978	0.0123431
990	0.0131569
1002	0.0130212
1014	0.0626648
1026	0.0964386
1038	0.0377074
1050	0.0484228
1062	0.140792
1074	0.528039
1086	0.702876
1098	0.200473
1110	0.0668695
1122	0.0534414
1134	0.0440823
1146	0.066327
1158	0.235468
1170	0.677105
1182	0.527496
1194	0.244691
1206	0.0767711
1218	0.056968
1230	0.0718881
1242	0.0750078
1254	0.115428
1266	0.121939
1278	0.0710743
1290	0.0857232
1302	0.109731
1314	0.202372
1326	0.176736
1338	0.0668695
1350	0.18284
1362	0.342486
1374	0.115564
1386	0.0514068
1398	0.0552047
1410	0.0777206
1422	0.0687685
1434	0.0429972
1446	0.0267207
1458	0.0242792
1470	0.0278058
1482	0.0278058
1494	0.0313324
1506	0.0528988
1518	0.0539839
1530	0.0328244
1542	0.0207526
1554	0.0217021
1566	0.0287553
1578	0.0375717
1590	0.0504573
1602	0.0934546
1614	0.17104
1626	0.128314
1638	0.0356728
1650	0.0192606
1662	0.0189893
1674	0.0264494
1686	0.0256356
1698	0.0435398
1710	0.0655132
1722	0.0712099
1734	0.12655
1746	0.509049
1758	1.31081
1770	0.923966
1782	0.210103
1794	0.0625291
1806	0.0409627
1818	0.0371648
1830	0.0238723
1842	0.0103085
1854	0.00474733
1866	0.00434042
1878	0.00501861
1890	0.00949466
1902	0.010851
1914	0.014242
1926	0.0168191
1938	0.014242
1950	0.011258
1962	0.0067819
1974	0.00515424
1986	0.00528988
1998	0.00366223
2010	0.00149202
2022	0.00298404
2034	0.00135638
2046	0.00149202
2058	0.000813828
2070	0.000542552
2082	0.00189893
2094	0.0028484
2106	0.0028484
2118	0.00122074
2130	0.000271276
2142	0.00135638
2154	0.00542552
2166	0.00447605
2178	0.00122074
2190	0.00162766
2202	0.000271276
2214	0.00135638
2226	0.00122074
2238	0.00217021
2250	0.00203457
2262	0.00189893
2274	0.00244148
2286	0.00244148
2298	0.00298404
2310	0.00271276
2322	0.00162766
2334	0.00637499
2346	0.0118005
2358	0.00203457
2370	0.00868083
2382	0.00623935
2394	0.00434042
2406	0.00488297
2418	0.00461169
2430	0.0056968
2442	0.0056968
2454	0.00501861
2466	0.00379786
2478	0.00474733
2490	0.00461169
2502	0.00461169
2514	0.00434042
2526	0.00501861
2538	0.00474733
2550	0.00610371
2562	0.00556116
2574	0.00637499
2586	0.00732445
2598	0.00705318
2610	0.00664626
2622	0.0056968
2634	0.00556116
2646	0.0056968
2658	0.00596807
2670	0.00691754
2682	0.00759573
2694	0.00610371
2706	0.00637499
2718	0.00542552
2730	0.00583243
2742	0.0067819
2754	0.00705318
2766	0.00746009
2778	0.00840956
2790	0.00881647
2802	0.00840956
2814	0.00990157
2826	0.0105798
2838	0.0128856
2850	0.0160053
2862	0.0233297
2874	0.0379786
2886	0.0416409
2898	0.0368935
2910	0.0375717
2922	0.0519494
2934	0.0857232
2946	0.0698536
2958	0.0371648
2970	0.0306542
2982	0.0287553
2994	0.036351
3006	0.0499148
3018	0.0539839
3030	0.0610371
3042	0.0900636
3054	0.0702605
3066	0.0416409
3078	0.036351
3090	0.0303829
3102	0.0276702
3114	0.0219734
3126	0.0154627
3138	0.0116649
3150	0.0103085
3162	0.00773137
3174	0.00705318
3186	0.00623935
3198	0.00732445
3210	0.00840956
3222	0.00922338
3234	0.0067819
3246	0.00664626
3258	0.00664626
3270	0.00542552
3282	0.00691754
3294	0.00556116
3306	0.00542552
3318	0.0056968
3330	0.00664626
3342	0.00623935
3354	0.007867
3366	0.00746009
3378	0.00827392
3390	0.0100372
3402	0.00610371
3414	0.000271276
3426	0.00420478
3438	0.00528988
3450	0.00610371
3462	0.00596807
3474	0.00610371
3486	0.00908775
3498	0.0147845
3510	0.0136994
3522	0.0103085
3534	0.007867
3546	0.00976594
3558	0.0122074
3570	0.0587313
3582	0.431058
3594	0.373818
3606	0.0193962
3618	0.00854519
3630	0.0115292
3642	0.00813828
3654	0.00827392
3666	0.0105798
3678	0.00732445
3690	0.00949466
3702	0.0123431
3714	0.00908775
3726	0.00976594
3738	0.00990157
3750	0.0138351
3762	0.0210239
3774	0.0174973
3786	0.010851
3798	0.0120718
3810	0.0096303
3822	0.00718881
3834	0.00908775
3846	0.0126143
3858	0.0056968
3870	0.00623935
3882	0.0100372
3894	0.00732445
3906	0.0123431
3918	0.0124787
3930	0.010851
3942	0.00800264
3954	0.00596807
3966	0.00651062
