Infrared Spectrum: 2-Heptanone, 3-butyl-,
Formula: C 11 H 22 O
CAS: 997-69-3
Origin: Sadtler Research Labs Under US-EPA Contract
1/CM	ABSORBANCE
450	0
462	0.00397382
474	0.0110183
486	0.012373
498	0.00767669
510	0.00623167
522	0.00587041
534	0.00885077
546	0.0145406
558	0.0136374
570	0.010928
582	0.0130955
594	0.0212238
606	0.0149921
618	0.00749606
630	0.0057801
642	0.00505758
654	0.00216754
666	0.000180628
678	0.00397382
690	0.00650261
702	0.0149018
714	0.0197788
726	0.0191466
738	0.0200497
750	0.0156243
762	0.00993454
774	0.00848952
786	0.0114699
798	0.00794763
810	0.00460601
822	0.00352225
834	0.00343193
846	0.00415444
858	0.00632198
870	0.00541884
882	0.00930234
894	0.0128246
906	0.0174306
918	0.0238429
930	0.0252879
942	0.0334162
954	0.032784
966	0.0287199
978	0.0213141
990	0.0170693
1002	0.0146309
1014	0.0122827
1026	0.0119214
1038	0.0111086
1050	0.0116505
1062	0.0137277
1074	0.0162565
1086	0.0206819
1098	0.0261911
1110	0.0368481
1122	0.0461505
1134	0.0676452
1146	0.0610523
1158	0.0979907
1170	0.132942
1182	0.0713481
1194	0.0462408
1206	0.048318
1218	0.0542787
1230	0.0525627
1242	0.0494018
1254	0.0403704
1266	0.0298036
1278	0.0289005
1290	0.0319712
1302	0.0307068
1314	0.031068
1326	0.0358547
1338	0.0636714
1350	0.150824
1362	0.185686
1374	0.108196
1386	0.0822761
1398	0.043441
1410	0.0362159
1422	0.0417251
1434	0.0507565
1446	0.0725221
1458	0.115241
1470	0.12355
1482	0.0531046
1494	0.0234816
1506	0.0198691
1518	0.0179725
1530	0.0162565
1542	0.0150824
1554	0.0112893
1566	0.00885077
1578	0.00794763
1590	0.00713481
1602	0.00731543
1614	0.00713481
1626	0.00867014
1638	0.00930234
1650	0.0128246
1662	0.014089
1674	0.025017
1686	0.0407316
1698	0.0605104
1710	0.160307
1722	0.439378
1734	0.347257
1746	0.0726125
1758	0.0408219
1770	0.032784
1782	0.0191466
1794	0.0116505
1806	0.00758638
1818	0.0045157
1830	0.00379319
1842	0.00243848
1854	0.00216754
1866	0.00243848
1878	0.00180628
1890	0.00153534
1902	0.00135471
1914	0.00153534
1926	0.000993454
1938	0.00117408
1950	0.0012644
1962	0.00117408
1974	0.000722512
1986	0.000812826
1998	0.000541884
2010	0.000722512
2022	0.000812826
2034	0.00117408
2046	0.00180628
2058	0.00108377
2070	0.00117408
2082	0.00171597
2094	0.00153534
2106	0.00180628
2118	0.00171597
2130	0.00162565
2142	0.000541884
2154	0.000812826
2166	0.000722512
2178	0.000632198
2190	0.000722512
2202	0.000722512
2214	0.000270942
2226	0.0012644
2238	0.00108377
2250	0.00153534
2262	0.00108377
2274	0.00144502
2286	0.00117408
2298	0.000722512
2310	0.000632198
2322	0.000541884
2334	0.000270942
2346	0.00117408
2358	0.00180628
2370	0.00153534
2382	0.00171597
2394	0.00180628
2406	0.00189659
2418	0.00198691
2430	0.00207722
2442	0.00225785
2454	0.00198691
2466	0.00189659
2478	0.00144502
2490	0.00234816
2502	0.00234816
2514	0.00198691
2526	0.00307068
2538	0.00243848
2550	0.00307068
2562	0.00361256
2574	0.00298036
2586	0.00433507
2598	0.00487696
2610	0.0051479
2622	0.0045157
2634	0.00505758
2646	0.00659292
2658	0.00659292
2670	0.00957328
2682	0.0102958
2694	0.0083992
2706	0.00867014
2718	0.00857983
2730	0.0102055
2742	0.0141793
2754	0.0139987
2766	0.0125536
2778	0.0137277
2790	0.0183337
2802	0.0231204
2814	0.0292617
2826	0.0364869
2838	0.0531046
2850	0.0962747
2862	0.257756
2874	0.374171
2886	0.353128
2898	0.241409
2910	0.272387
2922	0.448319
2934	0.806685
2946	0.81689
2958	0.508558
2970	0.778507
2982	0.311583
2994	0.109732
3006	0.0789344
3018	0.0635811
3030	0.0464214
3042	0.0345903
3054	0.0254685
3066	0.021856
3078	0.0184241
3090	0.0177919
3102	0.0133665
3114	0.0103861
3126	0.0096636
3138	0.00740575
3150	0.007767
3162	0.00740575
3174	0.00641229
3186	0.00550915
3198	0.00505758
3210	0.00406413
3222	0.00361256
3234	0.00180628
3246	0.00216754
3258	0.00171597
3270	0.000993454
3282	0.00135471
3294	0.000993454
3306	0.00162565
3318	0.000993454
3330	0.00135471
3342	0.00162565
3354	0.00045157
3366	0.00207722
3378	0.00153534
3390	0.00243848
3402	0.00198691
3414	0.00352225
3426	0.00587041
3438	0.00641229
3450	0.00216754
3462	0.00207722
3474	0.0012644
3486	0.0012644
3498	0.00270942
3510	0.0012644
3522	0.00234816
3534	0.00189659
3546	0.000993454
3558	0.00189659
3570	0.00162565
3582	0.00298036
3594	0.00234816
3606	0.00279973
3618	0.00198691
3630	0.00243848
3642	0.00316099
3654	0.00270942
3666	0.00198691
3678	0.00225785
3690	0.00261911
3702	0.00225785
3714	0.00135471
3726	0.00207722
3738	0.00162565
3750	0.00785732
3762	0.00279973
3774	0.00289005
3786	0.00189659
3798	0.00189659
3810	0.00298036
3822	0.00108377
3834	0.00216754
3846	0.00225785
3858	0.00234816
3870	0.00316099
3882	0.00307068
3894	0.00216754
3906	0.00189659
3918	0.00180628
3930	0.00225785
3942	0.00225785
3954	0.00442539
3966	0.00469633
