Infrared Spectrum: Diallyl maleate
Formula: C 10 H 12 O 4
CAS: 999-21-3
Origin: Sadtler Research Labs Under US-EPA Contract
1/CM	ABSORBANCE
450	0.00763896
462	0.0269801
474	0.00975186
486	0.0191787
498	0.0128399
510	0.0141402
522	0.00845161
534	0.0279553
546	0.0313685
558	0.028768
570	0.0190161
582	0.0310434
594	0.0269801
606	0.0284429
618	0.0169032
630	0.015928
642	0.0141402
654	0.0144653
666	0.018366
678	0.0167407
690	0.00276303
702	0.00698883
714	0.0139777
726	0.00958933
738	0.0113772
750	0.0225918
762	0.0152779
774	0.0204789
786	0.0321811
798	0.0544479
810	0.0880918
822	0.106945
834	0.114259
846	0.0794777
858	0.0659876
870	0.0585112
882	0.057536
894	0.0617618
906	0.0877667
918	0.180572
930	0.3262
942	0.230306
954	0.144002
966	0.173746
978	0.315473
990	0.566258
1002	0.486618
1014	0.352205
1026	0.189186
1038	0.102069
1050	0.0715136
1062	0.0601365
1074	0.0607866
1086	0.0632246
1098	0.0733015
1110	0.09183
1122	0.146278
1134	0.277278
1146	0.679542
1158	1.34852
1170	1.1161
1182	0.776573
1194	0.793476
1206	0.945118
1218	0.748293
1230	0.555531
1242	0.485318
1254	0.451186
1266	0.460288
1278	0.555368
1290	0.488081
1302	0.286542
1314	0.120761
1326	0.0692382
1338	0.0570484
1350	0.0794777
1362	0.104345
1374	0.108896
1386	0.175859
1398	0.399014
1410	0.202676
1422	0.106133
1434	0.0859789
1446	0.0976811
1458	0.104995
1470	0.0601365
1482	0.031531
1494	0.0214541
1506	0.0136526
1518	0.0121898
1530	0.0102395
1542	0.00406327
1554	0.00747643
1566	0.00893921
1578	0.0133275
1590	0.0165782
1602	0.0237295
1614	0.0357568
1626	0.0685881
1638	0.139289
1650	0.159931
1662	0.0843536
1674	0.0492469
1686	0.0481092
1698	0.0663126
1710	0.110033
1722	0.189836
1734	0.472478
1746	1.28936
1758	1.37761
1770	0.545779
1782	0.193249
1794	0.0999566
1806	0.0650124
1818	0.0438834
1830	0.0310434
1842	0.0276303
1854	0.0303933
1866	0.0310434
1878	0.0230794
1890	0.015603
1902	0.0144653
1914	0.0118648
1926	0.0115397
1938	0.010402
1950	0.00991439
1962	0.0102395
1974	0.010402
1986	0.00958933
1998	0.0094268
2010	0.00926427
2022	0.00796402
2034	0.00747643
2046	0.00633871
2058	0.00601365
2070	0.00520099
2082	0.00552605
2094	0.00520099
2106	0.00536352
2118	0.00487593
2130	0.00438834
2142	0.00373821
2154	0.00357568
2166	0.00373821
2178	0.00292556
2190	0.00227543
2202	0.0021129
2214	0.00113772
2226	0.000812655
2238	0.000162531
2250	0.000325062
2262	0.000812655
2274	0.000975186
2286	0.000975186
2298	0.00162531
2310	0.0021129
2322	0.00341315
2334	0.00357568
2346	0.00438834
2358	0.00373821
2370	0.00373821
2382	0.00406327
2394	0.00357568
2406	0.00341315
2418	0.00292556
2430	0.0026005
2442	0.0026005
2454	0.0021129
2466	0.00162531
2478	0.00162531
2490	0.00113772
2502	0.00130025
2514	0.00113772
2526	0.000812655
2538	0.00146278
2550	0.00113772
2562	0.00162531
2574	0.00243796
2586	0.00243796
2598	0.00113772
2610	0.00178784
2622	0.00178784
2634	0.00178784
2646	0.00162531
2658	0.00162531
2670	0.000975186
2682	0.000812655
2694	0.00146278
2706	0.0021129
2718	0.00227543
2730	0.00292556
2742	0.00292556
2754	0.00308809
2766	0.00325062
2778	0.00276303
2790	0.00341315
2802	0.00438834
2814	0.00585112
2826	0.00585112
2838	0.00601365
2850	0.00828908
2862	0.0113772
2874	0.0185285
2886	0.0329938
2898	0.0398201
2910	0.0308809
2922	0.0328313
2934	0.0537978
2946	0.0993064
2958	0.135388
2970	0.0892295
2982	0.0650124
2994	0.0739516
3006	0.0646873
3018	0.0520099
3030	0.0580236
3042	0.0336439
3054	0.0255174
3066	0.0347816
3078	0.047134
3090	0.0757394
3102	0.0840285
3114	0.0378697
3126	0.0151154
3138	0.00861414
3150	0.00633871
3162	0.00552605
3174	0.00438834
3186	0.00390074
3198	0.00373821
3210	0.0021129
3222	0.00227543
3234	0.00146278
3246	0.00195037
3258	0.00130025
3270	0.00130025
3282	0.00113772
3294	0.00162531
3306	0.00113772
3318	0.000487593
3330	0.000812655
3342	0.000650124
3354	0.000650124
3366	0.0026005
3378	0.00162531
3390	0.00292556
3402	0.0026005
3414	0.00178784
3426	0.0026005
3438	0.00227543
3450	0.00292556
3462	0.00503846
3474	0.0117022
3486	0.0147903
3498	0.0117022
3510	0.00617618
3522	0.0047134
3534	0.00292556
3546	0.00178784
3558	0.00162531
3570	0.00276303
3582	0.00292556
3594	0.000975186
3606	0.00195037
3618	0.00243796
3630	0.00243796
3642	0.00178784
3654	0.00130025
3666	0.00130025
3678	0.00130025
3690	0.00178784
3702	0.00243796
3714	0.00178784
3726	0.00243796
3738	0.00178784
3750	0.000975186
3762	0.00130025
3774	0
3786	0.0021129
3798	0.0026005
3810	0.00178784
3822	0.00373821
3834	0.0026005
3846	0.00178784
3858	0.00373821
3870	0.00146278
3882	0.00276303
3894	0.00487593
3906	0.00227543
3918	0.00276303
3930	0.00243796
3942	0.00292556
3954	0.00552605
3966	0.00276303
