Infrared Spectrum: 2-Propenoic acid, 2-propenyl ester
Formula: C 6 H 8 O 2
CAS: 999-55-3
Origin: Sadtler Research Labs Under US-EPA Contract
1/CM	ABSORBANCE
450	0.0112918
462	0.01968
474	0.00849574
486	0.017099
498	0.0104315
510	0.0120446
522	0.0140879
534	0.0126898
546	0.0147331
558	0.0109692
570	0.00957115
582	0.00989377
594	0.00924853
606	0.00924853
618	0.00742033
630	0.00731279
642	0.0109692
654	0.0146256
666	0.0148407
678	0.0102164
690	0.00634492
702	0.00397902
714	0.00193574
726	0.00247344
738	0.00247344
750	0.00107541
762	0.00290361
774	0.00989377
786	0.0127974
798	0.0380695
810	0.0704394
822	0.0545233
834	0.0325849
846	0.0233364
858	0.0198951
870	0.0201102
882	0.022261
894	0.024842
906	0.0374243
918	0.0782898
930	0.130125
942	0.110982
954	0.0986151
966	0.147761
978	0.201532
990	0.273154
1002	0.187552
1014	0.0767843
1026	0.0516197
1038	0.0908721
1050	0.219814
1062	0.230675
1074	0.0891515
1086	0.0488236
1098	0.0436616
1110	0.0402203
1122	0.0322623
1134	0.0358112
1146	0.0650623
1158	0.148407
1170	0.405214
1182	0.975719
1194	0.906033
1206	0.271218
1218	0.110445
1230	0.0803331
1242	0.133996
1254	0.353917
1266	0.435434
1278	0.256915
1290	0.204973
1302	0.185616
1314	0.0704394
1326	0.0271003
1338	0.021078
1350	0.0216157
1362	0.0264551
1374	0.0254872
1386	0.0301115
1398	0.14432
1410	0.28122
1422	0.124748
1434	0.0507594
1446	0.0511895
1458	0.055061
1470	0.0351659
1482	0.0202177
1494	0.0144105
1506	0.0150557
1518	0.0124748
1530	0.00849574
1542	0.00914099
1554	0.00634492
1566	0.00548459
1578	0.00763541
1590	0.00785049
1602	0.0137652
1614	0.0279607
1626	0.0477482
1638	0.0692564
1650	0.0579646
1662	0.0259174
1674	0.0137652
1686	0.0191423
1698	0.0220459
1710	0.0387148
1722	0.104637
1734	0.295738
1746	0.600616
1758	0.546308
1770	0.220244
1782	0.0623738
1794	0.0234439
1806	0.0158085
1818	0.0102164
1830	0.00989377
1842	0.0112918
1854	0.0109692
1866	0.0134426
1878	0.0104315
1890	0.00720525
1902	0.00709771
1914	0.00924853
1926	0.0133351
1938	0.0139803
1950	0.00817312
1962	0.00580721
1974	0.00537705
1986	0.00451672
1998	0.00408656
2010	0.0047318
2022	0.00623738
2034	0.00548459
2046	0.00408656
2058	0.00311869
2070	0.00376394
2082	0.00376394
2094	0.00311869
2106	0.00301115
2118	0.00301115
2130	0.0023659
2142	0.00268853
2154	0.00225836
2166	0.00150557
2178	0.00129049
2190	0.000860328
2202	0.000967869
2214	0.000860328
2226	0.000537705
2238	0.000752787
2250	0.000860328
2262	0.000430164
2274	0.000537705
2286	0.000645246
2298	0.00118295
2310	0.00118295
2322	0.000537705
2334	0.000430164
2346	0.00161312
2358	0.000967869
2370	0.00107541
2382	0.0018282
2394	0.000752787
2406	0.000215082
2418	0.000430164
2430	0
2442	0.000537705
2454	0.000860328
2466	0.000967869
2478	0.00129049
2490	0.000645246
2502	0.000430164
2514	0.000537705
2526	0.000645246
2538	0.000430164
2550	0.000645246
2562	0.000537705
2574	0.000645246
2586	0.000860328
2598	0.000967869
2610	0.000645246
2622	0.00107541
2634	0.000860328
2646	0.00107541
2658	0.000537705
2670	0.000537705
2682	0.000752787
2694	0.00118295
2706	0.00172066
2718	0.00161312
2730	0.00139803
2742	0.00139803
2754	0.00107541
2766	0.000537705
2778	0.000645246
2790	0.00107541
2802	0.00139803
2814	0.00225836
2826	0.0023659
2838	0.00258098
2850	0.00333377
2862	0.00559213
2874	0.00957115
2886	0.0153784
2898	0.0184971
2910	0.0163462
2922	0.0172066
2934	0.0282833
2946	0.0487161
2958	0.0600079
2970	0.0451672
2982	0.033983
2994	0.0410807
3006	0.0389298
3018	0.0296813
3030	0.0320472
3042	0.0328
3054	0.0253797
3066	0.0165613
3078	0.0235515
3090	0.0394675
3102	0.0487161
3114	0.035381
3126	0.0136577
3138	0.00483935
3150	0.00311869
3162	0.00247344
3174	0.00172066
3186	0.00150557
3198	0.00129049
3210	0.00129049
3222	0.00161312
3234	0.00150557
3246	0.00118295
3258	0.00118295
3270	0.000860328
3282	0.000967869
3294	0.00129049
3306	0.00118295
3318	0.00107541
3330	0.00139803
3342	0.00161312
3354	0.00107541
3366	0.00150557
3378	0.00215082
3390	0.00193574
3402	0.0018282
3414	0.00161312
3426	0.00118295
3438	0.00161312
3450	0.00139803
3462	0.00311869
3474	0.00623738
3486	0.00634492
3498	0.00365639
3510	0.000645246
3522	0
3534	0.00107541
3546	0.000752787
3558	0.00107541
3570	0.00150557
3582	0.00118295
3594	0.00129049
3606	0.00107541
3618	0.00118295
3630	0.00139803
3642	0.00139803
3654	0.00193574
3666	0.00139803
3678	0.00150557
3690	0.000860328
3702	0.000645246
3714	0.00139803
3726	0.00139803
3738	0.00129049
3750	0.000645246
3762	0.00204328
3774	0.0023659
3786	0.00139803
3798	0.000430164
3810	0.00129049
3822	0.000967869
3834	0.00247344
3846	0.000537705
3858	0.000215082
3870	0.00322623
3882	0.00247344
3894	0.00172066
3906	0.00215082
3918	0.00301115
3930	0.00204328
3942	0.00268853
3954	0.00161312
3966	0.00107541
